/*---------------------------------------------------------------------------*\
| =========                 |                                                 |
| \\      /  F ield         | OpenFOAM: The Open Source CFD Toolbox           |
|  \\    /   O peration     | Version:  1.4                                   |
|   \\  /    A nd           | Web:      http://www.openfoam.org               |
|    \\/     M anipulation  |                                                 |
\*---------------------------------------------------------------------------*/

FoamFile
{
    version         2.0;
    format          ascii;

    root            "";
    case            "";
    instance        "";
    local           "";

    class           volScalarField;
    object          k;
}

// * * * * * * * * * * * * * * * * * * * * * * * * * * * * * * * * * * * * * //


dimensions      [0 2 -2 0 0 0 0];

internalField   uniform 0.375;

boundaryField
{
    inlet           
    {
        type            fixedValue;
        value           uniform 0.375;
    }

    outlet          
    {
        type            zeroGradient;
    }

    upperWall       
    {
        type            zeroGradient;
    }

    lowerWall       
    {
        type            zeroGradient;
    }

    lowerWallInlet  
    {
        type            zeroGradient;
    }

    lowerWallInterface  
    {
        type            zeroGradient;
    }

    interface    
    {
        type            zeroGradient;
    }

    defaultFaces    
    {
        type            empty;
    }
}


// ************************************************************************* //
