/*--------------------------------*- C++ -*----------------------------------*\
| =========                 |                                                 |
| \\      /  F ield         | OpenFOAM Extend Project: Open Source CFD        |
|  \\    /   O peration     | Version:  1.6-ext                               |
|   \\  /    A nd           | Web:      www.extend-project.de                 |
|    \\/     M anipulation  |                                                 |
\*---------------------------------------------------------------------------*/
FoamFile
{
    version     2.0;
    format      ascii;
    class       dictionary;
    location    "system";
    object      fvSolution;
}
// * * * * * * * * * * * * * * * * * * * * * * * * * * * * * * * * * * * * * //

solvers
{
    U
    {
        solver          PCG;
        preconditioner  DIC;
        tolerance       1e-08;
        relTol          0.1;
    }
}

solidMechanics
{
    nCorrectors           10000;
    U                     1e-07;
    //divSigmaExp           standard;
    divSigmaExp           surface;
    //divSigmaExp           decompose;
    //divSigmaExp           laplacian;
    historyPatch          right;
    solidInterfaceMethod  smallStrainOrthotropicCorrected;
    predictor             yes;
    infoFrequency         100;
    aitkenRelaxation      yes;
}

relaxationFactors
{
  //U   0.9;
}
// ************************************************************************* //
