/*--------------------------------*- C++ -*----------------------------------*\
| =========                 |                                                 |
| \\      /  F ield         | foam-extend: Open Source CFD                    |
|  \\    /   O peration     | Version:     3.0                                |
|   \\  /    A nd           | Web:         http://www.extend-project.de       |
|    \\/     M anipulation  |                                                 |
\*---------------------------------------------------------------------------*/
FoamFile
{
    version     2.0;
    format      ascii;
    class       polyBoundaryMesh;
    location    "constant/polyMesh";
    object      boundary;
}
// * * * * * * * * * * * * * * * * * * * * * * * * * * * * * * * * * * * * * //

6
(
    back
    {
        type            empty;
        nFaces          600;
        startFace       1130;
    }
    front
    {
        type            empty;
        nFaces          600;
        startFace       1730;
    }
    left
    {
        type            symmetryPlane;
        nFaces          10;
        startFace       2330;
    }
    bottom
    {
        type            symmetryPlane;
        nFaces          10;
        startFace       2340;
    }
    inside
    {
        type            patch;
        nFaces          60;
        startFace       2350;
    }
    outside
    {
        type            patch;
        nFaces          60;
        startFace       2410;
    }
)

// ************************************************************************* //
