/*--------------------------------*- C++ -*----------------------------------*\
| =========                 |                                                 |
| \\      /  F ield         | foam-extend: Open Source CFD                    |
|  \\    /   O peration     | Version:     3.2                                |
|   \\  /    A nd           | Web:         http://www.foam-extend.org         |
|    \\/     M anipulation  |                                                 |
\*---------------------------------------------------------------------------*/
FoamFile
{
    version     2.0;
    format      ascii;
    class       dictionary;
    location    "constant/polyMesh";
    object      blockMeshDict;
}
// * * * * * * * * * * * * * * * * * * * * * * * * * * * * * * * * * * * * * //

convertToMeters 1;

vertices
(
 (-100 0 0)
 (0 -100 0)
 (100 0 0)
 (0 100 0)
 (-1 0 0)
 (0 -1 0)
 (1 0 0)
 (0 1 0)

 (-100 0 0.1)
 (0 -100 0.1)
 (100 0 0.1)
 (0 100 0.1)
 (-1 0 0.1)
 (0 -1 0.1)
 (1 0 0.1)
 (0 1 0.1)

);

blocks
(
 // Using (200 200 1) (1 0.0001 1) gives analytical solution
 hex (0 1 5 4 8 9 13 12) (50 50 1) simpleGrading (1 0.0001 1)
 hex (1 2 6 5 9 10 14 13) (50 50 1) simpleGrading (1 0.0001 1)
 hex (4 7 3 0 12 15 11 8) (50 50 1) simpleGrading (1 10000 1)
 hex (7 6 2 3 15 14 10 11) (50 50 1) simpleGrading (1 10000 1)
);

edges
(
 //1.4142135627
 //14.142135627
 //0.7071067812
 //7.071067812
 //70.71067812
 // top right
 arc 7 6 (0.7071067812 0.7071067812 0)
 arc 15 14 (0.7071067812 0.7071067812 0.1)
 arc 3 2 ( 70.71067812 70.71067812 0)
 arc 11 10 (70.71067812 70.71067812 0.1)
 // top left
 arc 4 7 (-0.7071067812 0.7071067812 0)
 arc 12 15 (-0.7071067812 0.7071067812 0.1)
 arc 0 3 (-70.71067812 70.71067812 0)
 arc 8 11 (-70.71067812 70.71067812 0.1)
 // bottom right
 arc 6 5 (0.7071067812 -0.7071067812 0)
 arc 14 13 (0.7071067812 -0.7071067812 0.1)
 arc 2 1 (70.71067812 -70.71067812 0)
 arc 10 9 (70.71067812 -70.71067812 0.1)
 // bottom left
 arc 5 4 (-0.7071067812 -0.7071067812 0)
 arc 13 12 (-0.7071067812 -0.7071067812 0.1)
 arc 1 0 (-70.71067812 -70.71067812 0)
 arc 9 8 (-70.71067812 -70.71067812 0.1)
);

patches
(
    patch inside
    (
     (4 12 13 5)
     (5 13 14 6)
     (6 14 15 7)
     (7 15 12 4)
     )
    patch outside
    (
     (8 0 1 9)
     (9 1 2 10)
     (10 2 3 11)
     (11 3 0 8)
     )
    empty back
    (
     (0 4 5 1)
     (1 5 6 2)
     (6 7 3 2)
     (7 4 0 3)
    )
    empty front
    (
     (8 9 13 12)
     (9 10 14 13)
     (10 11 15 14)
     (11 8 12 15)
     )
);

mergePatchPairs
(
);

// ************************************************************************* //
