/*--------------------------------*- C++ -*----------------------------------*\
| =========                 |                                                 |
| \\      /  F ield         | OpenFOAM Extend Project: Open Source CFD        |
|  \\    /   O peration     | Version:  1.6-ext                               |
|   \\  /    A nd           | Web:      www.extend-project.de                 |
|    \\/     M anipulation  |                                                 |
\*---------------------------------------------------------------------------*/
FoamFile
{
    version     2.0;
    format      ascii;
    class       polyBoundaryMesh;
    location    "constant/polyMesh";
    object      boundary;
}
// * * * * * * * * * * * * * * * * * * * * * * * * * * * * * * * * * * * * * //

5
(
    inlet
    {
        type            patch;
        nFaces          40;
        startFace       7860;
    }
    outlet
    {
        type            patch;
        nFaces          40;
        startFace       7900;
    }
    lowerWall
    {
        type            patch;
        nFaces          100;
        startFace       7940;
    }
    upperWall
    {
        type            patch;
        nFaces          100;
        startFace       8040;
    }
    frontAndBack
    {
        type            empty;
        nFaces          8000;
        startFace       8140;
    }
)

// ************************************************************************* //
