/*--------------------------------*- C++ -*----------------------------------*\
| =========                 |                                                 |
| \\      /  F ield         | foam-extend: Open Source CFD                    |
|  \\    /   O peration     | Version:     4.0                                |
|   \\  /    A nd           | Web:         http://www.foam-extend.org         |
|    \\/     M anipulation  | For copyright notice see file Copyright         |
\*---------------------------------------------------------------------------*/
FoamFile
{
    version     2.0;
    format      ascii;
    class       polyBoundaryMesh;
    location    "constant/polyMesh";
    object      boundary;
}
// * * * * * * * * * * * * * * * * * * * * * * * * * * * * * * * * * * * * * //

5
(
    inlet
    {
        type            patch;
        nFaces          40;
        startFace       7860;
    }
    outlet
    {
        type            patch;
        nFaces          40;
        startFace       7900;
    }
    lowerWall
    {
        type            patch;
        nFaces          100;
        startFace       7940;
    }
    upperWall
    {
        type            patch;
        nFaces          100;
        startFace       8040;
    }
    frontAndBack
    {
        type            empty;
        nFaces          8000;
        startFace       8140;
    }
)

// ************************************************************************* //
