/*--------------------------------*- C++ -*----------------------------------*\
| =========                 |                                                 |
| \\      /  F ield         | OpenFOAM Extend Project: Open Source CFD        |
|  \\    /   O peration     | Version:  1.6-ext                               |
|   \\  /    A nd           | Web:      www.extend-project.de                 |
|    \\/     M anipulation  |                                                 |
\*---------------------------------------------------------------------------*/
FoamFile
{
    version     2.0;
    format      ascii;
    class       volVectorField;
    object      U;
}
// * * * * * * * * * * * * * * * * * * * * * * * * * * * * * * * * * * * * * //

dimensions      [0 1 0 0 0 0 0];

internalField   uniform (0 0 0);

boundaryField
{
    bottomBrickDown
    {
        type            symmetryPlane;
    }

    bottomBrickUp
    {
        type            fixedGradient;
        gradient        uniform (0 0 0);
    }

    topBrickDown
    {
        type            directionMixed;
        refValue        uniform (0 0 0);
        refGradient     uniform (0 0 0);
        valueFraction   uniform (0 0 0 0 0 0);
    }

    topBrickUp
    {
        type            fixedGradient;
        gradient        uniform (0 0 0);
    }

    bottomBrickLeft
    {
        type            fixedGradient;
        gradient        uniform (0 0 0);
    }

    bottomBrickRight
    {
        type            fixedGradient;
        gradient        uniform (0 0 0);
    }

    topBrickLeft
    {
        type            fixedGradient;
        gradient        uniform (0 0 0);
    }

    topBrickRight
    {
        type            fixedGradient;
        gradient        uniform (0 0 0);
    }

    back
    {
        type            empty;
    }

    front
    {
        type            empty;
    }
}

// ************************************************************************* //
