/*--------------------------------*- C++ -*----------------------------------*\
| =========                 |                                                 |
| \\      /  F ield         | OpenFOAM: The Open Source CFD Toolbox           |
|  \\    /   O peration     | Version:  1.5                                   |
|   \\  /    A nd           | Web:      http://www.OpenFOAM.org               |
|    \\/     M anipulation  |                                                 |
\*---------------------------------------------------------------------------*/
FoamFile
{
    version     2.0;
    format      ascii;
    class       dictionary;
    object      controlDict;
}
// * * * * * * * * * * * * * * * * * * * * * * * * * * * * * * * * * * * * * //

application Xoodles;

startFrom       startTime;

startTime       0;

stopAt          endTime;

endTime         0.02;

deltaT          5e-06;

writeControl    runTime;

writeInterval   0.0005;

purgeWrite      0;

writeFormat     ascii;

writePrecision  6;

writeCompression compressed;

timeFormat      general;

timePrecision   6;

runTimeModifiable yes;

functions
(
    fieldAverage1
    {
        // Type of functionObject
        type fieldAverage;

        // Where to load it from (if not already in solver)
        functionObjectLibs ("libfieldAverage.so");

        // Fields to be  averaged - runTime modifiable
        fields
        (
            U
            {
                mean            on;
                prime2Mean      on;
                base            time;
            }
            p
            {
                mean            on;
                prime2Mean      on;
                base            time;
            }
        );
    }
);

// ************************************************************************* //
