/*--------------------------------*- C++ -*----------------------------------*\
| =========                 |                                                 |
| \\      /  F ield         | OpenFOAM Extend Project: Open Source CFD        |
|  \\    /   O peration     | Version:  1.6-ext                               |
|   \\  /    A nd           | Web:      www.extend-project.de                 |
|    \\/     M anipulation  |                                                 |
\*---------------------------------------------------------------------------*/
FoamFile
{
    version     2.0;
    format      binary;
    class       dictionary;
    location    "constant";
    object      combustionProperties;
}
// * * * * * * * * * * * * * * * * * * * * * * * * * * * * * * * * * * * * * //

Cmix            Cmix [ 0 0 0 0 0 0 0 ] 1;

ignitionProperties1
{
    ignite          off;
    ignitionPoint   ignitionPoint [ 0 1 0 0 0 0 0 ] ( 0.2 0 0.02 );
    timing          timing [ 0 0 1 0 0 0 0 ] 0;
    duration        duration [ 0 0 1 0 0 0 0 ] 1;
}

// ************************************************************************* //
