/*--------------------------------*- C++ -*----------------------------------*\
| =========                 |                                                 |
| \\      /  F ield         | foam-extend: Open Source CFD                    |
|  \\    /   O peration     | Version:     3.2                                |
|   \\  /    A nd           | Web:         http://www.foam-extend.org         |
|    \\/     M anipulation  | For copyright notice see file Copyright         |
\*---------------------------------------------------------------------------*/
FoamFile
{
    version     2.0;
    format      ascii;
    class       polyBoundaryMesh;
    location    "constant/polyMesh";
    object      boundary;
}
// * * * * * * * * * * * * * * * * * * * * * * * * * * * * * * * * * * * * * //

6
(
    topAndBottom
    {
        type            patch;
        nFaces          150;
        startFace       71816;
    }
    inlet
    {
        type            patch;
        nFaces          48;
        startFace       71966;
    }
    outlet
    {
        type            patch;
        nFaces          48;
        startFace       72014;
    }
    wing
    {
        type            wall;
        nFaces          778;
        startFace       72062;
    }
    symBack
    {
        type            empty;
        nFaces          35801;
        startFace       72840;
    }
    symFront
    {
        type            empty;
        nFaces          35801;
        startFace       108641;
    }
)

// ************************************************************************* //
