/*--------------------------------*- C++ -*----------------------------------*\
| =========                 |                                                 |
| \\      /  F ield         | foam-extend: Open Source CFD                    |
|  \\    /   O peration     | Version:     4.1                                |
|   \\  /    A nd           | Web:         http://www.foam-extend.org         |
|    \\/     M anipulation  |                                                 |
\*---------------------------------------------------------------------------*/
FoamFile
{
    version     2.0;
    format      ascii;
    class       dictionary;
    object      postProcessingDict;
}
// * * * * * * * * * * * * * * * * * * * * * * * * * * * * * * * * * * * * * //

functions
{
    readFields1
    {
        type            readFields;
        functionObjectLibs ("libfieldFunctionObjects.so");
        enabled         true;
        outputControl   timeStep;
        outputInterval  1;

        fields
        (
            interpolateU
        );
    }

    faceObj2
    {
        type            faceSource;
        functionObjectLibs ("libfieldFunctionObjects.so");
        enabled         true;
        outputControl   timeStep;
        outputInterval  1;
        log             true;
        valueOutput     true;
        source          faceZone;
        sourceName      f0;
        operation       areaAverage;

        fields
        (
            interpolateU
        );
    }
}


// ************************************************************************* //
