/*--------------------------------*- C++ -*----------------------------------*\
| =========                 |                                                 |
| \\      /  F ield         | foam-extend: Open Source CFD                    |
|  \\    /   O peration     | Version:     3.2                                |
|   \\  /    A nd           | Web:         http://www.foam-extend.org         |
|    \\/     M anipulation  |                                                 |
\*---------------------------------------------------------------------------*/
FoamFile
{
    version     2.0;
    format      ascii;
    class       volVectorField;
    location    "0";
    object      DU;
}
// * * * * * * * * * * * * * * * * * * * * * * * * * * * * * * * * * * * * * //

dimensions      [0 1 0 0 0 0 0];

internalField   uniform (0 0 0);

boundaryField
{
    left
    {
        type            symmetryPlane;
    }
    right
    {
      type            timeVaryingSolidTraction;
      nonLinear       totalLagrangian;
      outOfBounds     clamp;
      fileName        "$FOAM_CASE/constant/timeVsRightTraction";
    }

    down
    {
        type            symmetryPlane;
    }

    up
    {
      type            solidTractionFree;
      nonLinear       totalLagrangian;
    }

    hole
    {
      type            solidTractionFree;
      nonLinear       totalLagrangian;
    }

    frontAndBack
    {
        type            empty;
    }
}

// ************************************************************************* //
