/*--------------------------------*- C++ -*----------------------------------*\
| =========                 |                                                 |
| \\      /  F ield         | foam-extend: Open Source CFD                    |
|  \\    /   O peration     | Version:     4.0                                |
|   \\  /    A nd           | Web:         http://www.foam-extend.org         |
|    \\/     M anipulation  |                                                 |
\*---------------------------------------------------------------------------*/

FoamFile
{
    version         2.0;
    format          ascii;

    root            "";
    case            "";
    instance        "";
    local           "";

    class           volScalarField;
    object          p;
}

// * * * * * * * * * * * * * * * * * * * * * * * * * * * * * * * * * * * * * //


dimensions [0 2 -2 0 0 0 0];

internalField uniform 0;

boundaryField
{
    ibCylinder
    {
        type immersedBoundary;
        refValue uniform 0;
        refGradient  uniform 0;
        fixesValue no;

        setDeadCellValue   yes;
        deadCellValue      0;

        value uniform 0;
    }

     input
    {
        type zeroGradient;
    }

  output
    {
       type            fixedValue;
          value           uniform 0;

    }

    fixedWalls
    {
        type zeroGradient;
    }

    frontAndBack
    {
        type empty;
    }
}


// ************************************************************************* //
