/*--------------------------------*- C++ -*----------------------------------*\
| =========                 |                                                 |
| \\      /  F ield         | foam-extend: Open Source CFD                    |
|  \\    /   O peration     | Version:     3.2                                |
|   \\  /    A nd           | Web:         http://www.foam-extend.org         |
|    \\/     M anipulation  |                                                 |
\*---------------------------------------------------------------------------*/
FoamFile
{
    version     2.0;
    format      ascii;
    class       dictionary;
    object      blockMeshDict;
}
// * * * * * * * * * * * * * * * * * * * * * * * * * * * * * * * * * * * * * //

convertToMeters 1;

vertices
(
    (0 0 0)
    (1 0 0)
    (1 1 0)
    (0 1 0)
    (0 0 1)
    (1 0 1)
    (1 1 1)
    (0 1 1)
);

blocks
(
    hex (0 1 2 3 4 5 6 7) (16 16 16) simpleGrading (1 1 1)
);

edges
(
);

boundary
(
    patch0
    {
        type cyclic;
        faces
        (
            (0 3 2 1)
            (4 5 6 7)
        );
    }
    patch1
    {
        type cyclic;
        faces
        (
            (0 4 7 3)
            (2 6 5 1)
        );
    }
    patch2
    {
        type cyclic;
        faces
        (
            (3 7 6 2)
            (1 5 4 0)
        );
    }
);

mergePatchPairs
(
);

// ************************************************************************* //
