/*--------------------------------*- C++ -*----------------------------------*\
| =========                 |                                                 |
| \\      /  F ield         | foam-extend: Open Source CFD                    |
|  \\    /   O peration     | Version:     3.2                                |
|   \\  /    A nd           | Web:         http://www.foam-extend.org         |
|    \\/     M anipulation  |                                                 |
\*---------------------------------------------------------------------------*/
FoamFile
{
    version     2.0;
    format      ascii;
    class       dictionary;
    object      fvSolution;
}
// * * * * * * * * * * * * * * * * * * * * * * * * * * * * * * * * * * * * * //

solvers
{
    p PCG
    {
        preconditioner   DIC;
        tolerance        1e-06;
        relTol           0;
    };
    U PBiCG
    {
        preconditioner   DILU;
        tolerance        1e-05;
        relTol           0;
    };
}

PISO
{
    nCorrectors     4;
    nNonOrthogonalCorrectors 2;
}

// ************************************************************************* //
