/*--------------------------------*- C++ -*----------------------------------*\
| =========                 |                                                 |
| \\      /  F ield         | foam-extend: Open Source CFD                    |
|  \\    /   O peration     | Version:     3.2                                |
|   \\  /    A nd           | Web:         http://www.foam-extend.org         |
|    \\/     M anipulation  |                                                 |
\*---------------------------------------------------------------------------*/
FoamFile
{
    version     2.0;
    format      ascii;
    class       dictionary;
    object      molConfigDict;
}
// * * * * * * * * * * * * * * * * * * * * * * * * * * * * * * * * * * * * * //

// Euler angles, expressed in degrees as phi, theta, psi, see
// http://mathworld.wolfram.com/EulerAngles.html

sectionA
{
    massDensity             1004;
    temperature             298;
    bulkVelocity            (0.0 0.0 0.0);
    latticeIds
    (
        water
    );
    tetherSiteIds           ();
    latticePositions
    (
        (0 0 0)
    );
    anchor                  (0 0 0);
    orientationAngles       (0 0 0);
    latticeCellShape        (1 1 1);
}

sectionB
{
    massDensity             1004;
    temperature             298;
    bulkVelocity            (0.0 0.0 0.0);
    latticeIds
    (
        water
    );
    tetherSiteIds           ();
    latticePositions
    (
        (0 0 0)
    );
    anchor                  (0 0 0);
    orientationAngles       (0 0 0);
    latticeCellShape        (1 1 1);
}

sectionC
{
    massDensity             1004;
    temperature             298;
    bulkVelocity            (0.0 0.0 0.0);
    latticeIds
    (
        water
    );
    tetherSiteIds           ();
    latticePositions
    (
        (0 0 0)
    );
    anchor                  (0 0 0);
    orientationAngles       (0 0 0);
    latticeCellShape        (1 1 1);
}

// ************************************************************************* //
