/*--------------------------------*- C++ -*----------------------------------*\
| =========                 |                                                 |
| \\      /  F ield         | OpenFOAM Extend Project: Open Source CFD        |
|  \\    /   O peration     | Version:  1.6-ext                               |
|   \\  /    A nd           | Web:      www.extend-project.de                 |
|    \\/     M anipulation  |                                                 |
\*---------------------------------------------------------------------------*/
FoamFile
{
    version     2.0;
    format      ascii;
    class       dictionary;
    location    "system";
    object      controlDict;
}
// * * * * * * * * * * * * * * * * * * * * * * * * * * * * * * * * * * * * * //

libs            ("libcompressibleTurbulenceModel.so" "libcompressibleRASModels.so");

application     snappyHexMesh;

startFrom       latestTime;

startTime       0.001;

stopAt          endTime;

endTime         200;

deltaT          0.001;

writeControl    adjustableRunTime;
writeInterval   50;
//writeControl    timeStep;
//writeInterval   100;

purgeWrite      0;

writeFormat     ascii;

writePrecision  7;

writeCompression uncompressed;

timeFormat      general;

timePrecision   6;

runTimeModifiable yes;

maxCo           0.3;

// Maximum diffusion number
maxDi          10.0;

adjustTimeStep  yes;

// ************************************************************************* //
