/*--------------------------------*- C++ -*----------------------------------*\
| =========                 |                                                 |
| \\      /  F ield         | foam-extend: Open Source CFD                    |
|  \\    /   O peration     | Version:     3.2                                |
|   \\  /    A nd           | Web:         http://www.foam-extend.org         |
|    \\/     M anipulation  |                                                 |
\*---------------------------------------------------------------------------*/
FoamFile
{
    version     2.0;
    format      ascii;
    class       dictionary;
    object      fvSolution;
}
// * * * * * * * * * * * * * * * * * * * * * * * * * * * * * * * * * * * * * //

solvers
{
    T
    {
        solver           PCG;
        preconditioner   DIC;
        tolerance        1E-06;
        relTol           0;
    };
}

PISO
{
    nNonOrthogonalCorrectors 1;
}

PIMPLE
{
    nNonOrthogonalCorrectors 1;
}

// ************************************************************************* //
