/*--------------------------------*- C++ -*----------------------------------*\
| =========                 |                                                 |
| \\      /  F ield         | OpenFOAM Extend Project: Open Source CFD        |
|  \\    /   O peration     | Version:  1.6-ext                               |
|   \\  /    A nd           | Web:      www.extend-project.de                 |
|    \\/     M anipulation  |                                                 |
\*---------------------------------------------------------------------------*/
FoamFile
{
    version     2.0;
    format      ascii;
    class       volScalarField;
    object      p;
}
// * * * * * * * * * * * * * * * * * * * * * * * * * * * * * * * * * * * * * //

dimensions      [0 2 -2 0 0 0 0];

internalField   uniform 0;

boundaryField
{
    movingWall
    {
        type            zeroGradient;
    }

    farFieldMoving
    {
        type            zeroGradient;
    }

    fixedWall
    {
        type            fixedValue;
        value           uniform 0;
    }

    axis
    {
        type            symmetryPlane;
    }

    left
    {
        type            zeroGradient;
    }

    farField
    {
        type            zeroGradient;
    }

    back
    {
        type wedge;
    }

    front
    {
        type wedge;
    }
}

// ************************************************************************* //
