/*--------------------------------*- C++ -*----------------------------------*\
| =========                 |                                                 |
| \\      /  F ield         | foam-extend: Open Source CFD                    |
|  \\    /   O peration     | Version:     4.1                                |
|   \\  /    A nd           | Web:         http://www.foam-extend.org         |
|    \\/     M anipulation  |                                                 |
\*---------------------------------------------------------------------------*/
FoamFile
{
    version     2.0;
    format      ascii;
    class       dictionary;
    object      controlDict;
}
// * * * * * * * * * * * * * * * * * * * * * * * * * * * * * * * * * * * * * //

libs
(
    "liblduSolvers.so"
    "libfoam.so"
    "libsurfMesh.so"
    "libsampling.so"
    "libimmersedBoundary.so"
)

Tolerances
{
    immersedBoundaryLiveFactor  0.05;
//     immersedBoundaryNonOrthogonalFactor 0.5;
}



application     potentialFoam;

startFrom       startTime;

startTime       0;

stopAt          endTime;

endTime         2;

deltaT          0.025;

writeControl    timeStep;

writeInterval 2;

purgeWrite      0;

writeFormat     ascii;

writePrecision  6;

writeCompression compressed;

timeFormat      general;

timePrecision   6;

runTimeModifiable yes;

adjustTimeStep  no;

maxCo           0.2;

// functions
// (
//     immersedBoundaryForce
//     {
//         type               immersedBoundaryForce;
//         functionObjectLibs ("libimmersedBoundaryForceFunctionObject.so");
//         Aref 0.05;
//         Uref 1;
//     }
// );


// ************************************************************************* //
