/*--------------------------------*- C++ -*----------------------------------*\
| =========                 |                                                 |
| \\      /  F ield         | foam-extend: Open Source CFD                    |
|  \\    /   O peration     | Version:     3.2                                |
|   \\  /    A nd           | Web:         http://www.foam-extend.org         |
|    \\/     M anipulation  |                                                 |
\*---------------------------------------------------------------------------*/
FoamFile
{
    version     2.0;
    format      ascii;
    class       dictionary;
    object      swirlAndRotationProperties;
}
// * * * * * * * * * * * * * * * * * * * * * * * * * * * * * * * * * * * * * //

modifyBoundaries   yes;

modifyInterior     yes;

omega              omega [0 2 -1 0 0 0 0] (0.0 0.0 52.646);

center             center [0 0 0 0 0 0 0] (0.0 0.0 0.0);

rotatingPatches    (
                   inlet
                   rotSwirlWallA_BB
                   );

// ************************************************************************* //
