/*--------------------------------*- C++ -*----------------------------------*\
| =========                 |                                                 |
| \\      /  F ield         | OpenFOAM Extend Project: Open Source CFD        |
|  \\    /   O peration     | Version:  1.6-ext                               |
|   \\  /    A nd           | Web:      www.extend-project.de                 |
|    \\/     M anipulation  |                                                 |
\*---------------------------------------------------------------------------*/
FoamFile
{
    version     2.0;
    format      ascii;
    class       dictionary;
    object      blockMeshDict;
}
// * * * * * * * * * * * * * * * * * * * * * * * * * * * * * * * * * * * * * //

convertToMeters 1;

vertices
(
    (0     0 0)
    (0     7 0)
    (0     15 0)
    (0.1   0 0)
    (0.1   7 0)
    (0.1   15 0)
    (0     0 0.1)
    (0     7 0.1)
    (0     15 0.1)
    (0.1   0 0.1)
    (0.1   7 0.1)
    (0.1   15 0.1)
);

blocks
(
    hex (0 3 4 1 6 9 10 7) (1 40 1) simpleGrading (1 1 1)
    hex (1 4 5 2 7 10 11 8) (1 40 1) simpleGrading (1 1 1)
);

edges
(
);

patches
(
    wall lowerWall
    (
        (0 3 9 6)
    )
    wall upperWall
    (
        (2 8 11 5)
    )

    cyclic flow
    (
        (0 6 7 1)
        (1 7 8 2)

        (3 4 10 9)
        (4 5 11 10)
    )
);

mergePatchPairs
(
);

// ************************************************************************* //
