/*---------------------------------------------------------------------------*\
| =========                 |                                                 |
| \\      /  F ield         | OpenFOAM: The Open Source CFD Toolbox           |
|  \\    /   O peration     | Version:  1.2                                   |
|   \\  /    A nd           | Web:      http://www.openfoam.org               |
|    \\/     M anipulation  |                                                 |
\*---------------------------------------------------------------------------*/

// Field Dictionary

FoamFile
{
    version         2.0;
    format          ascii;

    root            "/home/coyote/hjasak/OpenFOAM/hjasak-1.2/run/test";
    case            "cavity";
    instance        "0";
    local           "";

    class           volScalarField;
    object          p;
}

// * * * * * * * * * * * * * * * * * * * * * * * * * * * * * * * * * * * * * //


dimensions      [0 2 -2 0 0 0 0];

internalField   uniform 0;

boundaryField
{
    in
    {
        type            zeroGradient;
    }

    out
    {
        type            fixedValue;
        value           uniform 0;
    }

    topAndBottom
    {
        type            zeroGradient;
    }

    frontAndBack    
    {
        type            empty;
    }
}


// ************************************************************************* //
