/*--------------------------------*- C++ -*----------------------------------*\
| =========                 |                                                 |
| \\      /  F ield         | OpenFOAM Extend Project: Open Source CFD        |
|  \\    /   O peration     | Version:  1.6-ext                               |
|   \\  /    A nd           | Web:      www.extend-project.de                 |
|    \\/     M anipulation  |                                                 |
\*---------------------------------------------------------------------------*/
FoamFile
{
    version     2.0;
    format      ascii;
    class       dictionary;
    location    "system";
    object      controlDict;
}
// * * * * * * * * * * * * * * * * * * * * * * * * * * * * * * * * * * * * * //

applicationClass    interTrackFoam;

startFrom           latestTime;

startTime           0;

stopAt              endTime;

endTime             10;

deltaT              0.01;

writeControl        runTime;

writeInterval       0.05;

cycleWrite          0;

writeFormat         binary;

writeCompression    uncompressed;

timeFormat          general;

timePrecision       6;

runTimeModifiable   yes;

//functions
//(
//   history
//   {
//       type sloshingHistory;
//       functionObjectLibs
//       (
//         "libsloshingHistory.so"
//       );
//   }
//);

// ************************************************************************* //

