/*--------------------------------*- C++ -*----------------------------------*\
| =========                 |                                                 |
| \\      /  F ield         | foam-extend: Open Source CFD                    |
|  \\    /   O peration     | Version:     3.2                                |
|   \\  /    A nd           | Web:         http://www.foam-extend.org         |
|    \\/     M anipulation  |                                                 |
\*---------------------------------------------------------------------------*/
FoamFile
{
    version     2.0;
    format      ascii;
    class       volVectorField;
    location    "0";
    object      U;
}
// * * * * * * * * * * * * * * * * * * * * * * * * * * * * * * * * * * * * * //

dimensions      [0 1 0 0 0 0 0];

internalField   uniform (0 0 0);

boundaryField
{
    left
    {
        type            symmetryPlane;
    }
    bottom
    {
        type            symmetryPlane;
    }
    inside
    {
        type            solidTraction;
        traction        uniform ( 0 0 0 );
        pressure        uniform 50e6;
        DT              k;
        value           uniform (0 0 0);
    }
    outside
    {
        type            solidTraction;
        traction        uniform ( 0 0 0 );
        pressure        uniform 0.1e6;
        DT              k;
        value           uniform (0 0 0);
    }
    front
    {
        type            empty;
    }
    back
    {
        type            empty;
    }
}

// ************************************************************************* //
