/*--------------------------------*- C++ -*----------------------------------*\
| =========                 |                                                 |
| \\      /  F ield         | foam-extend: Open Source CFD                    |
|  \\    /   O peration     | Version:     4.0                                |
|   \\  /    A nd           | Web:         http://www.foam-extend.org         |
|    \\/     M anipulation  |                                                 |
\*---------------------------------------------------------------------------*/
FoamFile
{
    version     2.0;
    format      ascii;
    class       polyBoundaryMesh;
    location    "constant/polyMesh";
    object      boundary;
}
// * * * * * * * * * * * * * * * * * * * * * * * * * * * * * * * * * * * * * //

5
(
    inlet
    {
        type            patch;
        nFaces          20;
        startFace       2320;
    }
    bound
    {
        type            wall;
        nFaces          120;
        startFace       2340;
    }
    outlet
    {
        type            patch;
        nFaces          20;
        startFace       2460;
    }
    bottom
    {
        type            patch;
        nFaces          1200;
        startFace       2480;
    }
    top
    {
        type            patch;
        nFaces          1200;
        startFace       3680;
    }
)


// ************************************************************************* //
