/*--------------------------------*- C++ -*----------------------------------*\
| =========                 |                                                 |
| \\      /  F ield         | OpenFOAM Extend Project: Open Source CFD        |
|  \\    /   O peration     | Version:  1.6-ext                               |
|   \\  /    A nd           | Web:      www.extend-project.de                 |
|    \\/     M anipulation  |                                                 |
\*---------------------------------------------------------------------------*/
FoamFile
{
    version     2.0;
    format      ascii;
    class       dictionary;
    object      fvSolution;
}
// * * * * * * * * * * * * * * * * * * * * * * * * * * * * * * * * * * * * * //

solvers
{
    p
    {
        solver           PCG;
        preconditioner   DIC;

        minIter          0;
        maxIter          2000;
        tolerance        1e-06;
        relTol           0.01;
    };
    U
    {
        solver           PBiCG;
        preconditioner   DILU;

        minIter          0;
        maxIter          500;
        tolerance        1e-05;
        relTol           0.1;
    };
    k
    {
        solver           PBiCG;
        preconditioner   DILU;

        minIter          0;
        maxIter          500;
        tolerance        1e-05;
        relTol           0.1;
    };
    epsilon PBiCG
    {
        solver           PBiCG;
        preconditioner   DILU;

        minIter          0;
        maxIter          500;
        tolerance        1e-05;
        relTol           0.1;
    };
    R PBiCG
    {
        solver           PBiCG;
        preconditioner   DILU;

        minIter          0;
        maxIter          500;
        tolerance        1e-05;
        relTol           0.1;
    };
    nuTilda PBiCG
    {
        solver           PBiCG;
        preconditioner   DILU;

        minIter          0;
        maxIter          500;
        tolerance        1e-05;
        relTol           0.1;
    };
}

SIMPLE
{
    nNonOrthogonalCorrectors 0;
}

relaxationFactors
{
    p               0.3;
    U               0.7;
    k               0.7;
    epsilon         0.7;
    R               0.7;
    nuTilda         0.7;
}

// ************************************************************************* //
