/*--------------------------------*- C++ -*----------------------------------*\
| =========                 |                                                 |
| \\      /  F ield         | foam-extend: Open Source CFD                    |
|  \\    /   O peration     | Version:     3.2                                |
|   \\  /    A nd           | Web:         http://www.foam-extend.org         |
|    \\/     M anipulation  |                                                 |
\*---------------------------------------------------------------------------*/
FoamFile
{
    version     2.0;
    format      ascii;
    class       volVectorField;
    location    "0";
    object      U;
}
// * * * * * * * * * * * * * * * * * * * * * * * * * * * * * * * * * * * * * //

dimensions      [0 1 0 0 0 0 0];

internalField   uniform (0 0 0);

boundaryField
{
    top
    {
         type            solidTraction;
         traction        uniform ( 0 2e7 0 );
         pressure        uniform 0;
        orthotropic     yes;
        value           uniform (0 0 0);
    }

    bottom
    {
        type            symmetryPlane;
    }

    left
    {
        type            symmetryPlane;
    }

    back
    {
        type            symmetryPlane;
    }

    right
    {
         type            solidTraction;
         traction        uniform ( 0 0 0 );
        pressure        uniform 0;
        orthotropic     yes;
        value           uniform (0 0 0);
    }

    front
    {
        type            solidTraction;
        traction        uniform ( 0 0 0 );
        pressure        uniform 0;
        orthotropic     yes;
        value           uniform (0 0 0);
    }
}

// ************************************************************************* //
