/*--------------------------------*- C++ -*----------------------------------*\
| =========                 |                                                 |
| \\      /  F ield         | foam-extend: Open Source CFD                    |
|  \\    /   O peration     | Version:     3.2                                |
|   \\  /    A nd           | Web:         http://www.foam-extend.org         |
|    \\/     M anipulation  |                                                 |
\*---------------------------------------------------------------------------*/
FoamFile
{
    version     2.0;
    format      ascii;
    class       dictionary;
    object      faMeshDefinition;
}
// * * * * * * * * * * * * * * * * * * * * * * * * * * * * * * * * * * * * * //

polyMeshPatches  1( top );

boundary
{
    inlet {
        type patch;
        ownerPolyPatch top;
        neighbourPolyPatch inlet;
    }
    outlet {
        type patch;
        ownerPolyPatch top;
        neighbourPolyPatch outlet;
    }
    bound {
        type symmetryPlane;
        ownerPolyPatch top;
        neighbourPolyPatch bound;
    }
}

// ************************************************************************** //
