/*--------------------------------*- C++ -*----------------------------------*\
| =========                 |                                                 |
| \\      /  F ield         | OpenFOAM: The Open Source CFD Toolbox           |
|  \\    /   O peration     | Version:  1.5-dev                               |
|   \\  /    A nd           | Web:      http://www.OpenFOAM.org               |
|    \\/     M anipulation  |                                                 |
\*---------------------------------------------------------------------------*/
FoamFile
{
    version     2.0;
    format      ascii;
    class       volVectorField;
    location    "0";
    object      DU;
}
// * * * * * * * * * * * * * * * * * * * * * * * * * * * * * * * * * * * * * //

dimensions      [0 1 0 0 0 0 0];

internalField   uniform (0 0 0);

boundaryField
{
    left
    {
      type            symmetryPlane;
    }

    right
    {
      type            timeVaryingSolidTraction;
      nonLinear       updatedLagrangian;
      outOfBounds     clamp;
      fileName        "$FOAM_CASE/constant/timeVsRightTraction";
    }

    down
    {
      type            symmetryPlane;
    }

    up
    {
      type            solidTractionFree;
      nonLinear       updatedLagrangian;
    }

    hole
    {
      type            solidTractionFree;
      nonLinear       updatedLagrangian;
    }

    frontAndBack
    {
        type            empty;
    }
}


// ************************************************************************* //
