/*--------------------------------*- C++ -*----------------------------------*\
| =========                 |                                                 |
| \\      /  F ield         | foam-extend: Open Source CFD                    |
|  \\    /   O peration     | Version:     4.0                                |
|   \\  /    A nd           | Web:         http://www.foam-extend.org         |
|    \\/     M anipulation  |                                                 |
\*---------------------------------------------------------------------------*/
FoamFile
{
    version     2.0;
    format      ascii;
    class       polyBoundaryMesh;
    location    "constant/polyMesh";
    object      boundary;
}
// * * * * * * * * * * * * * * * * * * * * * * * * * * * * * * * * * * * * * //

4
(
    patch1
    {
        type            patch;
        nFaces          2440;
        startFace       15316;
    }
    patch2
    {
        type            patch;
        nFaces          348;
        startFace       17756;
    }
    patch3
    {
        type            patch;
        nFaces          96;
        startFace       18104;
    }
    patch4
    {
        type            patch;
        nFaces          384;
        startFace       18200;
    }
)


// ************************************************************************* //
