/*--------------------------------*- C++ -*----------------------------------*\
| =========                 |                                                 |
| \\      /  F ield         | OpenFOAM: The Open Source CFD Toolbox           |
|  \\    /   O peration     | Version:  1.5                                   |
|   \\  /    A nd           | Web:      http://www.OpenFOAM.org               |
|    \\/     M anipulation  |                                                 |
\*---------------------------------------------------------------------------*/
FoamFile
{
    version     2.0;
    format      ascii;
    class       volScalarField;
    object      pd;
}
// * * * * * * * * * * * * * * * * * * * * * * * * * * * * * * * * * * * * * //

dimensions      [1 -1 -2 0 0 0 0];

internalField   uniform 0;

boundaryField
{
    floor
    {
        type            fixedFluxBuoyantPressure;
        value           uniform 0;
    }

    ceiling
    {
        type            fixedFluxBuoyantPressure;
        value           uniform 0;
    }

    fixedWalls
    {
        type            fixedFluxBuoyantPressure;
        value           uniform 0;
    }
}

// ************************************************************************* //
