/*--------------------------------*- C++ -*----------------------------------*\
| =========                 |                                                 |
| \\      /  F ield         | foam-extend: Open Source CFD                    |
|  \\    /   O peration     | Version:     3.2                                |
|   \\  /    A nd           | Web:         http://www.foam-extend.org         |
|    \\/     M anipulation  | For copyright notice see file Copyright         |
\*---------------------------------------------------------------------------*/
FoamFile
{
    version     2.0;
    format      ascii;
    class       dictionary;
    object      fvSolution;
}
// * * * * * * * * * * * * * * * * * * * * * * * * * * * * * * * * * * * * * //

solvers
{
    T
    {
//         solver           smoothSolver;
//         smoother         GaussSeidel;
//         nSweeps          1;

        solver           BiCGStab;
        preconditioner   DILU;

        minIter          1;
        maxIter          1000;
        tolerance        1e-10;
        relTol           0;
    }

//     T
//     {
//         solver           PCG;
//         preconditioner   DIC;

//         minIter          1;
//         maxIter          1000;
//         tolerance        1e-08;
//         relTol           0;
//     }

//     T
//     {
//         solver          GAMG;
//         tolerance       1e-08;
//         relTol          0;
//         minIter 1;
//         smoother        GaussSeidel;
//         cacheAgglomeration true;
//         nCellsInCoarsestLevel 10;
//         agglomerator    faceAreaPair;
//         mergeLevels     1;
//     }
}

SIMPLE
{}


// ************************************************************************* //
