/*--------------------------------*- C++ -*----------------------------------*\
| =========                 |                                                 |
| \\      /  F ield         | OpenFOAM Extend Project: Open Source CFD        |
|  \\    /   O peration     | Version:  1.6-ext                               |
|   \\  /    A nd           | Web:      www.extend-project.de                 |
|    \\/     M anipulation  |                                                 |
\*---------------------------------------------------------------------------*/
FoamFile
{
    version     2.0;
    format      ascii;
    class       dictionary;
    object      transportProperties;
}
// * * * * * * * * * * * * * * * * * * * * * * * * * * * * * * * * * * * * * //

// Ubar
Ubar            Ubar [0 1 -1 0 0 0 0] (10 0 0);

// Laminar incompressible transport model
transportModel  Newtonian;

// nu
nu              nu [0 2 -1 0 0 0 0] 1e-05;

// Coefficients for Cross's Power Law
CrossPowerLawCoeffs
{
    // nu0
    nu0             nu0 [0 2 -1 0 0 0 0] 1e-06;
    // nuInf
    nuInf           nuInf [0 2 -1 0 0 0 0] 1e-06;
    // m
    m               m [0 0 1 0 0 0 0] 1;
    // n
    n               n [0 0 0 0 0 0 0] 1;
}

// Coefficients for Bird-Carreau Law
BirdCarreauCoeffs
{
    // nu0
    nu0             nu0 [0 2 -1 0 0 0 0] 1e-06;
    // nuInf
    nuInf           nuInf [0 2 -1 0 0 0 0] 1e-06;
    // k
    k               k [0 0 1 0 0 0 0] 0;
    // n
    n               n [0 0 0 0 0 0 0] 1;
}

// ************************************************************************* //
