/*--------------------------------*- C++ -*----------------------------------*\
| =========                 |                                                 |
| \\      /  F ield         | foam-extend: Open Source CFD                    |
|  \\    /   O peration     | Version:     4.1                                |
|   \\  /    A nd           | Web:         http://www.foam-extend.org         |
|    \\/     M anipulation  |                                                 |
\*---------------------------------------------------------------------------*/
FoamFile
{
    version     2.0;
    format      ascii;
    class       dictionary;
    object      fvSolution;
}
// * * * * * * * * * * * * * * * * * * * * * * * * * * * * * * * * * * * * * //

solvers
{
    "p|pFinal"
    {
        solver           smoothSolver;
        smoother         GaussSeidel;

        minIter          0;
        maxIter          1000;
        tolerance        1e-10;
        relTol           0;
    }

    U
    {
        solver           smoothSolver;
        smoother         GaussSeidel;

        minIter          1;
        maxIter          1000;
        tolerance        1e-7;
        relTol           0;
    }
}


SIMPLE
{
    pRefCell 0;
    pRefValue 0;
}

PISO
{
    pRefCell 0;
    pRefValue 0;

    nCorrectors 4;
}


// ************************************************************************* //
