/*--------------------------------*- C++ -*----------------------------------*\
| =========                 |                                                 |
| \\      /  F ield         | foam-extend: Open Source CFD                    |
|  \\    /   O peration     | Version:     4.0                                |
|   \\  /    A nd           | Web:         http://www.foam-extend.org         |
|    \\/     M anipulation  |                                                 |
\*---------------------------------------------------------------------------*/
FoamFile
{
    version     2.0;
    format      ascii;
    class       dictionary;
    object      blockMeshDict;
}
// * * * * * * * * * * * * * * * * * * * * * * * * * * * * * * * * * * * * * //

convertToMeters 1;

vertices
(
    (0 0 0)
    (1 0 0)
    (1 0.1 0)
    (0 0.1 0)
    (0 0 0.1)
    (1 0 0.1)
    (1 0.1 0.1)
    (0 0.1 0.1)
);

blocks
(
    hex (0 1 2 3 4 5 6 7) (100 1 1) simpleGrading (1 1 1)
);

edges
(
);

patches
(
    patch inlet
    (
        (0 4 7 3)
    )
    patch outlet
    (
        (2 6 5 1)
    )
    symmetryPlane bottom
    (
        (1 5 4 0)
    )
    symmetryPlane top
    (
        (3 7 6 2)
    )

    // empty frontAndBack
    // (
    //     (0 3 2 1)
    //     (4 5 6 7)
    // )
);

mergePatchPairs
(
);


// ************************************************************************* //
