/*--------------------------------*- C++ -*----------------------------------*\
| =========                 |                                                 |
| \\      /  F ield         | foam-extend: Open Source CFD                    |
|  \\    /   O peration     | Version:     4.1                                |
|   \\  /    A nd           | Web:         http://www.foam-extend.org         |
|    \\/     M anipulation  |                                                 |
\*---------------------------------------------------------------------------*/
FoamFile
{
    version     2.0;
    format      ascii;
    class       polyBoundaryMesh;
    location    "constant/polyMesh";
    object      boundary;
}
// * * * * * * * * * * * * * * * * * * * * * * * * * * * * * * * * * * * * * //

3
(
    OversetFront
    {
        type            patch;
        nFaces          336;
        startFace       24832;
    }
    frontAndBack
    {
        type            empty;
        nFaces          25088;
        startFace       25168;
    }
    airfoil
    {
        type            wall;
        nFaces          176;
        startFace       50256;
    }
)


// ************************************************************************* //
