/*--------------------------------*- C++ -*----------------------------------*\
| =========                 |                                                 |
| \\      /  F ield         | foam-extend: Open Source CFD                    |
|  \\    /   O peration     | Version:     3.2                                |
|   \\  /    A nd           | Web:         http://www.foam-extend.org         |
|    \\/     M anipulation  |                                                 |
\*---------------------------------------------------------------------------*/
FoamFile
{
    version     2.0;
    format      ascii;
    class       dictionary;
    location    "constant";
    object      rheologyProperties;
}
// * * * * * * * * * * * * * * * * * * * * * * * * * * * * * * * * * * * * * //

planeStress     no;

rheology
{
    type            PronyViscoelastic;
    rho             rho  [1 -3 0 0 0 0 0]  1000;
    kDimensions     [1 -1 -2 0 0 0 0];
    tauDimensions   [0 0 1 0 0 0 0];
    size 6;
    k nonuniform List<scalar>
    6
    (
       249.764
       13.2808
       155.824
       132.829
       36.6369
       126.665
    );
    tau nonuniform List<scalar>
    6
    (
       0
       0.200271
       0.772759
       3.61961
       16.9607
       289.154
    );
    nu nu [0 0 0 0 0 0 0] 0.49;
}

// ************************************************************************* //
