/*--------------------------------*- C++ -*----------------------------------*\
| =========                 |                                                 |
| \\      /  F ield         | foam-extend: Open Source CFD                    |
|  \\    /   O peration     | Version:     3.2                                |
|   \\  /    A nd           | Web:         http://www.foam-extend.org         |
|    \\/     M anipulation  |                                                 |
\*---------------------------------------------------------------------------*/
FoamFile
{
    version     2.0;
    format      ascii;
    class       volScalarField;
    object      p;
}
// * * * * * * * * * * * * * * * * * * * * * * * * * * * * * * * * * * * * * //

dimensions      [0 2 -2 0 0 0 0];

internalField   uniform 0;

boundaryField
{
    RUINLET
    {
        type            zeroGradient;
    }
    RUOUTLET
    {
        type            fixedValue;
        value           uniform 0;
    }
    RUCYCLIC1
    {
        type            cyclicGgi;
    }
    RUCYCLIC2
    {
        type            cyclicGgi;
    }
    RUBLADE
    {
        type            zeroGradient;
    }
    RUHUB
    {
        type            zeroGradient;
    }
    RUSHROUD
    {
        type            zeroGradient;
    }
}

// ************************************************************************* //
