/*--------------------------------*- C++ -*----------------------------------*\
| =========                 |                                                 |
| \\      /  F ield         | OpenFOAM Extend Project: Open Source CFD        |
|  \\    /   O peration     | Version:  1.6-ext                               |
|   \\  /    A nd           | Web:      www.extend-project.de                 |
|    \\/     M anipulation  |                                                 |
\*---------------------------------------------------------------------------*/
FoamFile
{
    version     2.0;
    format      ascii;
    class       dictionary;
    object      blockMeshDict;
}
// * * * * * * * * * * * * * * * * * * * * * * * * * * * * * * * * * * * * * //

convertToMeters 0.1;

vertices
(
    (-0.5 -0.5 -0.05)
    (0.5 -0.5 -0.05)
    (0.5 0.5 -0.05)
    (-0.5 0.5 -0.05)
    (-0.5 -0.5 0.05)
    (0.5 -0.5 0.05)
    (0.5 0.5 0.05)
    (-0.5 0.5 0.05)
);

blocks
(
    hex (0 1 2 3 4 5 6 7) (20 20 1) simpleGrading (1 1 1)
);

edges
(
);

patches
(
    patch right
    (
        (2 6 5 1)
    )
    patch left
    (
        (0 4 7 3)
     )
    patch top
    (
        (3 7 6 2)
     )
    patch bottom
    (
        (1 5 4 0)
    )
    empty back
    (
        (0 3 2 1)
     )
    empty front
    (
        (4 5 6 7)
    )
);

mergePatchPairs
(
);

// ************************************************************************* //
