/*--------------------------------*- C++ -*----------------------------------*\
| =========                 |                                                 |
| \\      /  F ield         | foam-extend: Open Source CFD                    |
|  \\    /   O peration     | Version:     3.2                                |
|   \\  /    A nd           | Web:         http://www.foam-extend.org         |
|    \\/     M anipulation  |                                                 |
\*---------------------------------------------------------------------------*/
FoamFile
{
    version     2.0;
    format      ascii;
    class       dictionary;
    object      blockMeshDict;
}
// * * * * * * * * * * * * * * * * * * * * * * * * * * * * * * * * * * * * * //

convertToMeters 20;

vertices
(
    (-1 -1  0)
    ( 1 -1  0)
    ( 1  1  0)
    (-1  1  0)
    (-1 -1  0.015)
    ( 1 -1  0.015)
    ( 1  1  0.015)
    (-1  1  0.015)
);

blocks
(
    hex (0 1 2 3 4 5 6 7) (40 40 1) simpleGrading (1 1 1)
);

edges
(
);

patches
(
    patch top
    (
        (3 7 6 2)
    )
    patch in
    (
        (0 4 7 3)
    )
    patch out
    (
        (2 6 5 1)
    )
    patch bottom
    (
        (1 5 4 0)
    )
    empty frontAndBack
    (
        (0 3 2 1)
        (4 5 6 7)
    )
);

mergePatchPairs
(
);

// ************************************************************************* //
