/*--------------------------------*- C++ -*----------------------------------*\
| =========                 |                                                 |
| \\      /  F ield         | foam-extend: Open Source CFD                    |
|  \\    /   O peration     | Version:     4.1                                |
|   \\  /    A nd           | Web:         http://www.foam-extend.org         |
|    \\/     M anipulation  |                                                 |
\*---------------------------------------------------------------------------*/
FoamFile
{
    version     2.0;
    format      ascii;
    class       surfaceScalarField;
    location    "constant";
    object      differenceFactors_;
}
// * * * * * * * * * * * * * * * * * * * * * * * * * * * * * * * * * * * * * //

dimensions      [0 -1 0 0 0 0 0];

internalField   nonuniform List<scalar>
29690
(
822.368
1000
822.368
1000
822.368
1000
822.368
1000
822.368
1000
822.368
1000
822.368
1000
822.368
1000
822.368
1000
822.368
1000
822.368
1000
822.368
1000
822.368
1000
822.368
1000
822.368
1000
822.368
1000
822.368
1000
822.368
1000
822.368
1000
822.368
1000
822.368
1000
822.368
1000
822.368
1000
822.368
1000
822.368
1000
822.368
1000
822.368
1000
822.368
1000
822.368
1000
822.368
1000
822.368
1000
822.368
1000
822.368
1000
822.368
1000
822.368
1000
822.368
1000
822.368
1000
822.368
1000
822.368
1000
822.368
1000
822.368
1000
822.368
1000
822.368
1000
822.368
1000
822.368
1000
822.368
1000
822.368
1000
822.368
1000
822.368
1000
822.368
1000
822.368
1000
822.368
1000
822.368
1000
822.368
1000
822.368
1000
822.368
1000
822.368
1000
822.368
1000
822.368
1000
822.368
1000
822.368
1000
822.368
1000
822.368
1000
822.368
1000
822.368
1000
822.368
1000
822.368
1000
822.368
1000
822.368
1000
822.368
1000
822.368
1000
822.368
1000
822.368
1000
822.368
1000
822.368
1000
822.368
1000
822.368
1000
822.368
1000
822.368
1000
822.368
1000
822.368
1000
822.368
1000
822.368
1000
822.368
1000
822.368
1000
822.368
1000
822.368
1000
822.368
1000
822.368
1000
822.368
1000
822.368
1000
822.368
1000
822.368
1000
822.368
1000
822.368
1000
822.368
1000
822.368
1000
822.368
1000
822.368
1000
822.368
1000
822.368
1000
822.368
1000
822.368
1000
822.368
1000
822.368
1000
822.368
1000
822.368
1000
822.368
1000
822.368
1000
822.368
1000
822.368
1000
822.368
1000
822.368
1000
822.368
1000
822.368
1000
822.368
1000
822.368
1000
822.368
1000
822.368
1000
822.368
1000
822.368
1000
822.368
1000
822.368
1000
822.368
1000
822.368
1000
822.368
1000
822.368
1000
822.368
1000
822.368
1000
822.368
1000
822.368
1000
822.368
1000
822.368
1000
822.368
1000
822.368
1000
822.368
1000
822.368
1000
822.368
1000
822.368
1000
822.368
1000
822.368
1000
822.368
1000
822.368
1000
822.368
1000
822.368
1000
822.368
1000
822.368
1000
822.368
1000
822.368
1000
822.368
1000
822.368
1000
822.368
1000
822.368
1000
822.368
1000
822.368
1000
822.368
1000
822.368
1000
822.368
1000
822.368
1000
822.368
1000
822.368
1000
822.368
1000
822.368
1000
822.368
1000
822.368
1000
822.368
1000
822.368
1000
822.368
1000
822.368
1000
822.368
1000
822.368
1000
822.368
1000
822.368
1000
822.368
1000
822.368
1000
822.368
1000
822.368
1000
822.368
1000
822.368
1000
822.368
1000
822.368
1000
822.368
1000
822.368
1000
822.368
1000
822.368
1000
822.368
1000
822.368
1000
822.368
1000
822.368
1000
822.368
1000
822.368
1000
822.368
1000
822.368
1000
822.368
1000
822.368
1000
822.368
1000
822.368
1000
822.368
1000
822.368
1000
822.368
1000
822.368
1000
822.368
1000
822.368
1000
822.368
1000
822.368
1000
822.368
1000
822.368
1000
822.368
1000
822.368
1000
822.368
1000
822.368
1000
822.368
1000
822.368
1000
822.368
1000
822.368
1000
822.368
1000
822.368
1000
822.368
1000
822.368
1000
822.368
1000
822.368
1000
822.368
1000
822.368
1000
822.368
1000
822.368
1000
822.368
1000
822.368
1000
822.368
1000
822.368
1000
822.368
1000
822.368
1000
822.368
1000
822.368
1000
822.368
1000
822.368
1000
822.368
1000
822.368
1000
822.368
1000
822.368
1000
822.368
1000
822.368
1000
822.368
1000
822.368
1000
822.368
1000
822.368
1000
822.368
1000
822.368
1000
822.368
1000
822.368
1000
1000
822.368
1000
822.368
1000
822.368
1000
822.368
1000
822.368
1000
822.368
1000
822.368
1000
822.368
1000
822.368
1000
822.368
1000
822.368
1000
822.368
1000
822.368
1000
822.368
1000
822.368
1000
822.368
1000
822.368
1000
822.368
1000
822.368
1000
822.368
1000
822.368
1000
822.368
1000
822.368
1000
822.368
1000
822.368
1000
822.368
1000
822.368
1000
822.368
1000
822.368
1000
822.368
1000
822.368
1000
822.368
1000
822.368
1000
822.368
1000
822.368
1000
822.368
1000
822.368
1000
822.368
1000
822.368
1000
822.368
1000
822.368
1000
822.368
1000
822.368
1000
822.368
1000
822.368
1000
822.368
1000
822.368
1000
822.368
1000
822.368
1000
822.368
1000
822.368
1000
822.368
1000
822.368
1000
822.368
1000
822.368
1000
822.368
1000
822.368
1000
822.368
1000
822.368
1000
822.368
1000
822.368
1000
822.368
1000
822.368
1000
822.368
1000
822.368
1000
822.368
1000
822.368
1000
822.368
1000
822.368
1000
822.368
1000
822.368
1000
822.368
1000
822.368
1000
822.368
1000
822.368
1000
822.368
1000
822.368
1000
822.368
1000
822.368
1000
822.368
1000
822.368
1000
822.368
1000
822.368
1000
822.368
1000
822.368
1000
822.368
1000
822.368
1000
822.368
1000
822.368
1000
822.368
1000
822.368
1000
822.368
1000
822.368
1000
822.368
1000
822.368
1000
822.368
1000
822.368
1000
822.368
1000
822.368
1000
822.368
1000
822.368
1000
822.368
1000
822.368
1000
822.368
1000
822.368
1000
822.368
1000
822.368
1000
822.368
1000
822.368
1000
822.368
1000
822.368
1000
822.368
1000
822.368
1000
822.368
1000
822.368
1000
822.368
1000
822.368
1000
822.368
1000
822.368
1000
822.368
1000
822.368
1000
822.368
1000
822.368
1000
822.368
1000
822.368
1000
822.368
1000
822.368
1000
822.368
1000
822.368
1000
822.368
1000
822.368
1000
822.368
1000
822.368
1000
822.368
1000
822.368
1000
822.368
1000
822.368
1000
822.368
1000
822.368
1000
822.368
1000
822.368
1000
822.368
1000
822.368
1000
822.368
1000
822.368
1000
822.368
1000
822.368
1000
822.368
1000
822.368
1000
822.368
1000
822.368
1000
822.368
1000
822.368
1000
822.368
1000
822.368
1000
822.368
1000
822.368
1000
822.368
1000
822.368
1000
822.368
1000
822.368
1000
822.368
1000
822.368
1000
822.368
1000
822.368
1000
822.368
1000
822.368
1000
822.368
1000
822.368
1000
822.368
1000
822.368
1000
822.368
1000
822.368
1000
822.368
1000
822.368
1000
822.368
1000
822.368
1000
822.368
1000
822.368
1000
822.368
1000
822.368
1000
822.368
1000
822.368
1000
822.368
1000
822.368
1000
822.368
1000
822.368
1000
822.368
1000
822.368
1000
822.368
1000
822.368
1000
822.368
1000
822.368
1000
822.368
1000
822.368
1000
822.368
1000
822.368
1000
822.368
1000
822.368
1000
822.368
1000
822.368
1000
822.368
1000
822.368
1000
822.368
1000
822.368
1000
822.368
1000
822.368
1000
822.368
1000
822.368
1000
822.368
1000
822.368
1000
822.368
1000
822.368
1000
822.368
1000
822.368
1000
822.368
1000
822.368
1000
822.368
1000
822.368
1000
822.368
1000
822.368
1000
822.368
1000
822.368
1000
822.368
1000
822.368
1000
822.368
1000
822.368
1000
822.368
1000
822.368
1000
822.368
1000
822.368
1000
822.368
1000
822.368
1000
822.368
1000
822.368
1000
822.368
1000
822.368
1000
822.368
1000
822.368
1000
822.368
1000
822.368
1000
822.368
1000
822.368
1000
822.368
1000
822.368
1000
822.368
1000
822.368
1000
822.368
1000
822.368
1000
1000
822.368
1000
822.368
1000
822.368
1000
822.368
1000
822.368
1000
822.368
1000
822.368
1000
822.368
1000
822.368
1000
822.368
1000
822.368
1000
822.368
1000
822.368
1000
822.368
1000
822.368
1000
822.368
1000
822.368
1000
822.368
1000
822.368
1000
822.368
1000
822.368
1000
822.368
1000
822.368
1000
822.368
1000
822.368
1000
822.368
1000
822.368
1000
822.368
1000
822.368
1000
822.368
1000
822.368
1000
822.368
1000
822.368
1000
822.368
1000
822.368
1000
822.368
1000
822.368
1000
822.368
1000
822.368
1000
822.368
1000
822.368
1000
822.368
1000
822.368
1000
822.368
1000
822.368
1000
822.368
1000
822.368
1000
822.368
1000
822.368
1000
822.368
1000
822.368
1000
822.368
1000
822.368
1000
822.368
1000
822.368
1000
822.368
1000
822.368
1000
822.368
1000
822.368
1000
822.368
1000
822.368
1000
822.368
1000
822.368
1000
822.368
1000
822.368
1000
822.368
1000
822.368
1000
822.368
1000
822.368
1000
822.368
1000
822.368
1000
822.368
1000
822.368
1000
822.368
1000
822.368
1000
822.368
1000
822.368
1000
822.368
1000
822.368
1000
822.368
1000
822.368
1000
822.368
1000
822.368
1000
822.368
1000
822.368
1000
822.368
1000
822.368
1000
822.368
1000
822.368
1000
822.368
1000
822.368
1000
822.368
1000
822.368
1000
822.368
1000
822.368
1000
822.368
1000
822.368
1000
822.368
1000
822.368
1000
822.368
1000
822.368
1000
822.368
1000
822.368
1000
822.368
1000
822.368
1000
822.368
1000
822.368
1000
822.368
1000
822.368
1000
822.368
1000
822.368
1000
822.368
1000
822.368
1000
822.368
1000
822.368
1000
822.368
1000
822.368
1000
822.368
1000
822.368
1000
822.368
1000
822.368
1000
822.368
1000
822.368
1000
822.368
1000
822.368
1000
822.368
1000
822.368
1000
822.368
1000
822.368
1000
822.368
1000
822.368
1000
822.368
1000
822.368
1000
822.368
1000
822.368
1000
822.368
1000
822.368
1000
822.368
1000
822.368
1000
822.368
1000
822.368
1000
822.368
1000
822.368
1000
822.368
1000
822.368
1000
822.368
1000
822.368
1000
822.368
1000
822.368
1000
822.368
1000
822.368
1000
822.368
1000
822.368
1000
822.368
1000
822.368
1000
822.368
1000
822.368
1000
822.368
1000
822.368
1000
822.368
1000
822.368
1000
822.368
1000
822.368
1000
822.368
1000
822.368
1000
822.368
1000
822.368
1000
822.368
1000
822.368
1000
822.368
1000
822.368
1000
822.368
1000
822.368
1000
822.368
1000
822.368
1000
822.368
1000
822.368
1000
822.368
1000
822.368
1000
822.368
1000
822.368
1000
822.368
1000
822.368
1000
822.368
1000
822.368
1000
822.368
1000
822.368
1000
822.368
1000
822.368
1000
822.368
1000
822.368
1000
822.368
1000
822.368
1000
822.368
1000
822.368
1000
822.368
1000
822.368
1000
822.368
1000
822.368
1000
822.368
1000
822.368
1000
822.368
1000
822.368
1000
822.368
1000
822.368
1000
822.368
1000
822.368
1000
822.368
1000
822.368
1000
822.368
1000
822.368
1000
822.368
1000
822.368
1000
822.368
1000
822.368
1000
822.368
1000
822.368
1000
822.368
1000
822.368
1000
822.368
1000
822.368
1000
822.368
1000
822.368
1000
822.368
1000
822.368
1000
822.368
1000
822.368
1000
822.368
1000
822.368
1000
822.368
1000
822.368
1000
822.368
1000
822.368
1000
822.368
1000
822.368
1000
822.368
1000
822.368
1000
822.368
1000
822.368
1000
822.368
1000
822.368
1000
822.368
1000
822.368
1000
822.368
1000
822.368
1000
822.368
1000
822.368
1000
822.368
1000
822.368
1000
1000
822.368
1000
822.368
1000
822.368
1000
822.368
1000
822.368
1000
822.368
1000
822.368
1000
822.368
1000
822.368
1000
822.368
1000
822.368
1000
822.368
1000
822.368
1000
822.368
1000
822.368
1000
822.368
731.707
822.368
790.514
822.368
790.514
822.368
790.514
822.368
790.514
822.368
790.514
822.368
790.514
822.368
790.514
822.368
790.514
822.368
790.514
822.368
790.514
822.368
790.514
822.368
790.514
822.368
790.514
822.368
790.514
822.368
790.514
822.368
790.514
822.368
790.514
822.368
790.514
822.368
790.514
822.368
790.514
822.368
790.514
822.368
790.514
822.368
790.514
822.368
790.514
822.368
790.514
822.368
790.514
822.368
790.514
822.368
790.514
822.368
790.514
822.368
790.514
822.368
790.514
822.368
790.514
822.368
790.514
822.368
790.514
822.368
790.514
822.368
790.514
822.368
790.514
822.368
790.514
822.368
790.514
822.368
790.514
822.368
790.514
822.368
790.514
822.368
790.514
822.368
790.514
822.368
790.514
822.368
790.514
822.368
790.514
822.368
790.514
822.368
790.514
822.368
790.514
822.368
790.514
822.368
790.514
822.368
790.514
822.368
790.514
822.368
790.514
822.368
790.514
822.368
790.514
822.368
790.514
822.368
790.514
822.368
790.514
822.368
790.514
822.368
790.514
822.368
790.514
822.368
790.514
822.368
790.514
822.368
790.514
822.368
790.514
822.368
790.514
822.368
790.514
822.368
790.514
822.368
790.514
822.368
790.514
822.368
790.514
822.368
790.514
822.368
790.514
822.368
790.514
822.368
790.514
822.368
790.514
822.368
790.514
822.368
790.514
822.368
790.514
822.368
790.514
822.368
790.514
822.368
790.514
822.368
790.514
822.368
790.514
822.368
790.514
822.368
790.514
822.368
790.514
822.368
790.514
822.368
790.514
822.368
790.514
822.368
790.514
822.368
790.514
822.368
790.514
822.368
790.514
822.368
790.514
822.368
790.514
822.368
790.514
822.368
790.514
822.368
790.514
822.368
790.514
822.368
790.514
822.368
790.514
822.368
790.514
822.368
790.514
822.368
790.514
822.368
790.514
822.368
790.514
822.368
790.514
822.368
790.514
822.368
790.514
822.368
790.514
822.368
790.514
822.368
790.514
822.368
790.514
822.368
790.514
822.368
790.514
822.368
790.514
822.368
790.514
822.368
790.514
822.368
790.514
822.368
790.514
822.368
790.514
822.368
790.514
822.368
790.514
822.368
790.514
822.368
790.514
822.368
790.514
822.368
790.514
822.368
790.514
822.368
790.514
822.368
790.514
822.368
790.514
822.368
790.514
822.368
790.514
822.368
790.514
822.368
790.514
822.368
790.514
822.368
790.514
822.368
790.514
822.368
790.514
822.368
790.514
822.368
790.514
822.368
790.514
822.368
790.514
822.368
790.514
822.368
790.514
822.368
790.514
822.368
790.514
822.368
790.514
822.368
790.514
822.368
790.514
822.368
790.514
822.368
790.514
822.368
790.514
822.368
790.514
822.368
790.514
822.368
790.514
822.368
790.514
822.368
790.514
822.368
790.514
822.368
790.514
822.368
790.514
822.368
790.514
822.368
790.514
822.368
790.514
822.368
790.514
822.368
790.514
822.368
752.488
822.368
719.29
822.368
690.015
822.368
669.944
822.368
1000
822.368
1000
822.368
1000
822.368
1000
822.368
1000
822.368
1000
822.368
1000
822.368
1000
822.368
1000
822.368
1000
822.368
1000
822.368
1000
822.368
1000
822.368
1000
822.368
1000
822.368
1000
822.368
1000
822.368
1000
822.368
1000
822.368
1000
822.368
1000
822.368
1000
822.368
1000
822.368
1000
822.368
1000
822.368
1000
822.368
1000
822.368
1000
822.368
1000
822.368
1000
822.368
1000
822.368
1000
822.368
1000
822.368
1000
822.368
1000
822.368
1000
822.368
1000
822.368
1000
822.368
1000
822.368
1000
822.368
1000
822.368
1000
822.368
1000
822.368
1000
822.368
1000
822.368
1000
822.368
1000
822.368
1000
822.368
1000
822.368
1000
822.368
1000
822.368
1000
822.368
1000
822.368
1000
822.368
1000
822.368
1000
822.368
1000
822.368
1000
822.368
1000
822.368
1000
1000
822.368
1000
822.368
1000
822.368
1000
822.368
1000
822.368
1000
822.368
1000
822.368
1000
822.368
1000
822.368
1000
822.368
1000
822.368
1000
822.368
1000
822.368
1000
822.368
1000
593.743
1000
1337.31
1561.72
822.368
1360.54
822.368
1360.54
822.368
1360.54
822.368
1360.54
822.368
1360.54
822.368
1360.54
822.368
1360.54
822.368
1360.54
822.368
1360.54
822.368
1360.54
822.368
1360.54
822.368
1360.54
822.368
1360.54
822.368
1360.54
822.368
1360.54
822.368
1360.54
822.368
1360.54
822.368
1360.54
822.368
1360.54
822.368
1360.54
822.368
1360.54
822.368
1360.54
822.368
1360.54
822.368
1360.54
822.368
1360.54
822.368
1360.54
822.368
1360.54
822.368
1360.54
822.368
1360.54
822.368
1360.54
822.368
1360.54
822.368
1360.54
822.368
1360.54
822.368
1360.54
822.368
1360.54
822.368
1360.54
822.368
1360.54
822.368
1360.54
822.368
1360.54
822.368
1360.54
822.368
1360.54
822.368
1360.54
822.368
1360.54
822.368
1360.54
822.368
1360.54
822.368
1360.54
822.368
1360.54
822.368
1360.54
822.368
1360.54
822.368
1360.54
822.368
1360.54
822.368
1360.54
822.368
1360.54
822.368
1360.54
822.368
1360.54
822.368
1360.54
822.368
1360.54
822.368
1360.54
822.368
1360.54
822.368
1360.54
822.368
1360.54
822.368
1360.54
822.368
1360.54
822.368
1360.54
822.368
1360.54
822.368
1360.54
822.368
1360.54
822.368
1360.54
822.368
1360.54
822.368
1360.54
822.368
1360.54
822.368
1360.54
822.368
1360.54
822.368
1360.54
822.368
1360.54
822.368
1360.54
822.368
1360.54
822.368
1360.54
822.368
1360.54
822.368
1360.54
822.368
1360.54
822.368
1360.54
822.368
1360.54
822.368
1360.54
822.368
1360.54
822.368
1360.54
822.368
1360.54
822.368
1360.54
822.368
1360.54
822.368
1360.54
822.368
1360.54
822.368
1360.54
822.368
1360.54
822.368
1360.54
822.368
1360.54
822.368
1360.54
822.368
1360.54
822.368
1360.54
822.368
1360.54
822.368
1360.54
822.368
1360.54
822.368
1360.54
822.368
1360.54
822.368
1360.54
822.368
1360.54
822.368
1360.54
822.368
1360.54
822.368
1360.54
822.368
1360.54
822.368
1360.54
822.368
1360.54
822.368
1360.54
822.368
1360.54
822.368
1360.54
822.368
1360.54
822.368
1360.54
822.368
1360.54
822.368
1360.54
822.368
1360.54
822.368
1360.54
822.368
1360.54
822.368
1360.54
822.368
1360.54
822.368
1360.54
822.368
1360.54
822.368
1360.54
822.368
1360.54
822.368
1360.54
822.368
1360.54
822.368
1360.54
822.368
1360.54
822.368
1360.54
822.368
1360.54
822.368
1360.54
822.368
1360.54
822.368
1360.54
822.368
1360.54
822.368
1360.54
822.368
1360.54
822.368
1360.54
822.368
1360.54
822.368
1360.54
822.368
1360.54
822.368
1360.54
822.368
1360.54
822.368
1360.54
822.368
1360.54
822.368
1360.54
822.368
1360.54
822.368
1360.54
822.368
1360.54
822.368
1360.54
822.368
1360.54
822.368
1360.54
822.368
1360.54
822.368
1360.54
822.368
1360.54
822.368
1360.54
822.368
1360.54
822.368
1360.54
822.368
1360.54
822.368
1360.54
822.368
1360.54
822.368
1360.54
822.368
1360.54
822.368
1360.54
822.368
1360.54
822.368
1360.54
848.092
1360.54
838.701
1490.15
888.154
1640.04
1206.77
1815.68
570.134
1892.06
822.368
922.74
822.368
871.634
822.368
825.937
822.368
784.863
822.368
747.822
822.368
714.522
822.368
686.549
822.368
667.091
822.368
1000
822.368
1000
822.368
1000
822.368
1000
822.368
1000
822.368
1000
822.368
1000
822.368
1000
822.368
1000
822.368
1000
822.368
1000
822.368
1000
822.368
1000
822.368
1000
822.368
1000
822.368
1000
822.368
1000
822.368
1000
822.368
1000
822.368
1000
822.368
1000
822.368
1000
822.368
1000
822.368
1000
822.368
1000
822.368
1000
822.368
1000
822.368
1000
822.368
1000
822.368
1000
822.368
1000
822.368
1000
822.368
1000
822.368
1000
822.368
1000
822.368
1000
822.368
1000
822.368
1000
822.368
1000
822.368
1000
822.368
1000
822.368
1000
822.368
1000
822.368
1000
822.368
1000
822.368
1000
822.368
1000
822.368
1000
822.368
1000
822.368
1000
822.368
1000
822.368
1000
1000
822.368
1000
822.368
1000
822.368
1000
822.368
1000
822.368
1000
822.368
1000
822.368
1000
822.368
1000
822.368
1000
822.368
1000
822.368
1000
822.368
1000
822.368
1000
822.368
1000
623.036
1000
1209.25
1007.04
822.368
1000
822.368
1000
822.368
1000
822.368
1000
822.368
1000
822.368
1000
822.368
1000
822.368
1000
822.368
1000
822.368
1000
822.368
1000
822.368
1000
822.368
1000
822.368
1000
822.368
1000
822.368
1000
822.368
1000
822.368
1000
822.368
1000
822.368
1000
822.368
1000
822.368
1000
822.368
1000
822.368
1000
822.368
1000
822.368
1000
822.368
1000
822.368
1000
822.368
1000
822.368
1000
822.368
1000
822.368
1000
822.368
1000
822.368
1000
822.368
1000
822.368
1000
822.368
1000
822.368
1000
822.368
1000
822.368
1000
822.368
1000
822.368
1000
822.368
1000
822.368
1000
822.368
1000
822.368
1000
822.368
1000
822.368
1000
822.368
1000
822.368
1000
822.368
1000
822.368
1000
822.368
1000
822.368
1000
822.368
1000
822.368
1000
822.368
1000
822.368
1000
822.368
1000
822.368
1000
822.368
1000
822.368
1000
822.368
1000
822.368
1000
822.368
1000
822.368
1000
822.368
1000
822.368
1000
822.368
1000
822.368
1000
822.368
1000
822.368
1000
822.368
1000
822.368
1000
822.368
1000
822.368
1000
822.368
1000
822.368
1000
822.368
1000
822.368
1000
822.368
1000
822.368
1000
822.368
1000
822.368
1000
822.368
1000
822.368
1000
822.368
1000
822.368
1000
822.368
1000
822.368
1000
822.368
1000
822.368
1000
822.368
1000
822.368
1000
822.368
1000
822.368
1000
822.368
1000
822.368
1000
822.368
1000
822.368
1000
822.368
1000
822.368
1000
822.368
1000
822.368
1000
822.368
1000
822.368
1000
822.368
1000
822.368
1000
822.368
1000
822.368
1000
822.368
1000
822.368
1000
822.368
1000
822.368
1000
822.368
1000
822.368
1000
822.368
1000
822.368
1000
822.368
1000
822.368
1000
822.368
1000
822.368
1000
822.368
1000
822.368
1000
822.368
1000
822.368
1000
822.368
1000
822.368
1000
822.368
1000
822.368
1000
822.368
1000
822.368
1000
822.368
1000
822.368
1000
822.368
1000
822.368
1000
822.368
1000
822.368
1000
822.368
1000
822.368
1000
822.368
1000
822.368
1000
822.368
1000
822.368
1000
822.368
1000
822.368
1000
822.368
1000
822.368
1000
822.368
1000
822.368
1000
822.368
1000
822.368
1000
822.368
1000
822.368
1000
822.368
1000
822.368
1000
822.368
1000
822.368
1000
822.368
1000
822.368
1000
822.368
1000
822.368
1000
822.368
1000
822.368
1000
822.368
1000
822.368
1000
822.368
1000
822.368
1000
822.368
1000
822.368
1000
822.368
1000
830.861
1000
824.474
1021.65
824.275
1091.38
825.12
1172.7
826.697
1267.02
830.157
1377.62
840.606
1508.79
918.604
1665.38
1232.95
1840.13
550.997
1884.43
822.368
914.694
822.368
864.455
822.368
819.485
822.368
779.044
822.368
742.58
822.368
709.866
822.368
683.55
822.368
1000
822.368
1000
822.368
1000
822.368
1000
822.368
1000
822.368
1000
822.368
1000
822.368
1000
822.368
1000
822.368
1000
822.368
1000
822.368
1000
822.368
1000
822.368
1000
822.368
1000
822.368
1000
822.368
1000
822.368
1000
822.368
1000
822.368
1000
822.368
1000
822.368
1000
822.368
1000
822.368
1000
822.368
1000
822.368
1000
822.368
1000
822.368
1000
822.368
1000
822.368
1000
822.368
1000
822.368
1000
822.368
1000
822.368
1000
822.368
1000
822.368
1000
822.368
1000
822.368
1000
822.368
1000
822.368
1000
822.368
1000
822.368
1000
822.368
1000
822.368
1000
822.368
1000
1000
822.368
1000
822.368
1000
822.368
1000
822.368
1000
822.368
1000
822.368
1000
822.368
1000
822.368
1000
822.368
1000
822.368
1000
822.368
1000
822.368
1000
822.368
1000
822.368
1000
642.632
1000
1141.68
1000
822.368
1000
822.368
1000
822.368
1000
822.368
1000
822.368
1000
822.368
1000
822.368
1000
822.368
1000
822.368
1000
822.368
1000
822.368
1000
822.368
1000
822.368
1000
822.368
1000
822.368
1000
822.368
1000
822.368
1000
822.368
1000
822.368
1000
822.368
1000
822.368
1000
822.368
1000
822.368
1000
822.368
1000
822.368
1000
822.368
1000
822.368
1000
822.368
1000
822.368
1000
822.368
1000
822.368
1000
822.368
1000
822.368
1000
822.368
1000
822.368
1000
822.368
1000
822.368
1000
822.368
1000
822.368
1000
822.368
1000
822.368
1000
822.368
1000
822.368
1000
822.368
1000
822.368
1000
822.368
1000
822.368
1000
822.368
1000
822.368
1000
822.368
1000
822.368
1000
822.368
1000
822.368
1000
822.368
1000
822.368
1000
822.368
1000
822.368
1000
822.368
1000
822.368
1000
822.368
1000
822.368
1000
822.368
1000
822.368
1000
822.368
1000
822.368
1000
822.368
1000
822.368
1000
822.368
1000
822.368
1000
822.368
1000
822.368
1000
822.368
1000
822.368
1000
822.368
1000
822.368
1000
822.368
1000
822.368
1000
822.368
1000
822.368
1000
822.368
1000
822.368
1000
822.368
1000
822.368
1000
822.368
1000
822.368
1000
822.368
1000
822.368
1000
822.368
1000
822.368
1000
822.368
1000
822.368
1000
822.368
1000
822.368
1000
822.368
1000
822.368
1000
822.368
1000
822.368
1000
822.368
1000
822.368
1000
822.368
1000
822.368
1000
822.368
1000
822.368
1000
822.368
1000
822.368
1000
822.368
1000
822.368
1000
822.368
1000
822.368
1000
822.368
1000
822.368
1000
822.368
1000
822.368
1000
822.368
1000
822.368
1000
822.368
1000
822.368
1000
822.368
1000
822.368
1000
822.368
1000
822.368
1000
822.368
1000
822.368
1000
822.368
1000
822.368
1000
822.368
1000
822.368
1000
822.368
1000
822.368
1000
822.368
1000
822.368
1000
822.368
1000
822.368
1000
822.368
1000
822.368
1000
822.368
1000
822.368
1000
822.368
1000
822.368
1000
822.368
1000
822.368
1000
822.368
1000
822.368
1000
822.368
1000
822.368
1000
822.368
1000
822.368
1000
822.368
1000
822.368
1000
822.368
1000
822.368
1000
822.368
1000
822.368
1000
822.368
1000
822.368
1000
822.368
1000
822.368
1000
822.368
1000
822.368
1000
822.368
1000
822.368
1000
822.368
1000
822.368
1000
822.368
1000
822.368
1000
822.368
1000
822.368
1000
822.368
1000
822.368
1000
822.368
1000
822.368
1000
822.368
1000
822.368
1000
822.368
1000
822.368
1000
822.368
1000
822.368
1000
822.368
1000
822.368
1000
831.755
1000
823.842
1030.62
824.379
1102.85
825.299
1185.96
827.041
1282.51
831.02
1395.92
843.965
1530.59
965.692
1691.23
680.133
1860.26
822.368
962.259
822.368
906.787
822.368
857.39
822.368
813.148
822.368
773.341
822.368
737.442
822.368
705.327
822.368
680.587
822.368
1000
822.368
1000
822.368
1000
822.368
1000
822.368
1000
822.368
1000
822.368
1000
822.368
1000
822.368
1000
822.368
1000
822.368
1000
822.368
1000
822.368
1000
822.368
1000
822.368
1000
822.368
1000
822.368
1000
822.368
1000
822.368
1000
822.368
1000
822.368
1000
822.368
1000
822.368
1000
822.368
1000
822.368
1000
822.368
1000
822.368
1000
822.368
1000
822.368
1000
822.368
1000
822.368
1000
822.368
1000
822.368
1000
822.368
1000
822.368
1000
822.368
1000
822.368
1000
1000
822.368
1000
822.368
1000
822.368
1000
822.368
1000
822.368
1000
822.368
1000
822.368
1000
822.368
1000
822.368
1000
822.368
1000
822.368
1000
822.368
1000
822.368
1000
822.368
1000
642.632
1000
1141.68
1000
822.368
1000
822.368
1000
822.368
1000
822.368
1000
822.368
1000
822.368
1000
822.368
1000
822.368
1000
822.368
1000
822.368
1000
822.368
1000
822.368
1000
822.368
1000
822.368
1000
822.368
1000
822.368
1000
822.368
1000
822.368
1000
822.368
1000
822.368
1000
822.368
1000
822.368
1000
822.368
1000
822.368
1000
822.368
1000
822.368
1000
822.368
1000
822.368
1000
822.368
1000
822.368
1000
822.368
1000
822.368
1000
822.368
1000
822.368
1000
822.368
1000
822.368
1000
822.368
1000
822.368
1000
822.368
1000
822.368
1000
822.368
1000
822.368
1000
822.368
1000
822.368
1000
822.368
1000
822.368
1000
822.368
1000
822.368
1000
822.368
1000
822.368
1000
822.368
1000
822.368
1000
822.368
1000
822.368
1000
822.368
1000
822.368
1000
822.368
1000
822.368
1000
822.368
1000
822.368
1000
822.368
1000
822.368
1000
822.368
1000
822.368
1000
822.368
1000
822.368
1000
822.368
1000
822.368
1000
822.368
1000
822.368
1000
822.368
1000
822.368
1000
822.368
1000
822.368
1000
822.368
1000
822.368
1000
822.368
1000
822.368
1000
822.368
1000
822.368
1000
822.368
1000
822.368
1000
822.368
1000
822.368
1000
822.368
1000
822.368
1000
822.368
1000
822.368
1000
822.368
1000
822.368
1000
822.368
1000
822.368
1000
822.368
1000
822.368
1000
822.368
1000
822.368
1000
822.368
1000
822.368
1000
822.368
1000
822.368
1000
822.368
1000
822.368
1000
822.368
1000
822.368
1000
822.368
1000
822.368
1000
822.368
1000
822.368
1000
822.368
1000
822.368
1000
822.368
1000
822.368
1000
822.368
1000
822.368
1000
822.368
1000
822.368
1000
822.368
1000
822.368
1000
822.368
1000
822.368
1000
822.368
1000
822.368
1000
822.368
1000
822.368
1000
822.368
1000
822.368
1000
822.368
1000
822.368
1000
822.368
1000
822.368
1000
822.368
1000
822.368
1000
822.368
1000
822.368
1000
822.368
1000
822.368
1000
822.368
1000
822.368
1000
822.368
1000
822.368
1000
822.368
1000
822.368
1000
822.368
1000
822.368
1000
822.368
1000
822.368
1000
822.368
1000
822.368
1000
822.368
1000
822.368
1000
822.368
1000
822.368
1000
822.368
1000
822.368
1000
822.368
1000
822.368
1000
822.368
1000
822.368
1000
822.368
1000
822.368
1000
822.368
1000
822.368
1000
822.368
1000
822.368
1000
822.368
1000
822.368
1000
822.368
1000
822.368
1000
822.368
1000
822.368
1000
822.368
1000
822.368
1000
822.368
1000
822.368
1000
822.368
1000
822.368
1000
822.368
1000
822.368
1000
822.368
1000
822.368
1000
822.368
1000
822.368
1000
822.368
1000
822.368
1000
822.368
1000
822.368
1000
822.758
1000
831.568
1000.51
823.898
1040.82
824.483
1114.57
825.487
1199.52
827.433
1298.34
832.047
1414.61
848.402
1552.89
1016.59
1717.57
653.073
1875.85
822.368
953.474
822.368
898.978
822.368
850.415
822.368
806.887
822.368
767.696
822.368
732.357
822.368
700.892
822.368
677.646
822.368
1000
822.368
1000
822.368
1000
822.368
1000
822.368
1000
822.368
1000
822.368
1000
822.368
1000
822.368
1000
822.368
1000
822.368
1000
822.368
1000
822.368
1000
822.368
1000
822.368
1000
822.368
1000
822.368
1000
822.368
1000
822.368
1000
822.368
1000
822.368
1000
822.368
1000
822.368
1000
822.368
1000
822.368
1000
822.368
1000
822.368
1000
822.368
1000
822.368
1000
1000
822.368
1000
822.368
1000
822.368
1000
822.368
1000
822.368
1000
822.368
1000
822.368
1000
822.368
1000
822.368
1000
822.368
1000
822.368
1000
822.368
1000
822.368
1000
822.368
1000
642.632
1000
1141.68
1000
822.368
1000
822.368
1000
822.368
1000
822.368
1000
822.368
1000
822.368
1000
822.368
1000
822.368
1000
822.368
1000
822.368
1000
822.368
1000
822.368
1000
822.368
1000
822.368
1000
822.368
1000
822.368
1000
822.368
1000
822.368
1000
822.368
1000
822.368
1000
822.368
1000
822.368
1000
822.368
1000
822.368
1000
822.368
1000
822.368
1000
822.368
1000
822.368
1000
822.368
1000
822.368
1000
822.368
1000
822.368
1000
822.368
1000
822.368
1000
822.368
1000
822.368
1000
822.368
1000
822.368
1000
822.368
1000
822.368
1000
822.368
1000
822.368
1000
822.368
1000
822.368
1000
822.368
1000
822.368
1000
822.368
1000
822.368
1000
822.368
1000
822.368
1000
822.368
1000
822.368
1000
822.368
1000
822.368
1000
822.368
1000
822.368
1000
822.368
1000
822.368
1000
822.368
1000
822.368
1000
822.368
1000
822.368
1000
822.368
1000
822.368
1000
822.368
1000
822.368
1000
822.368
1000
822.368
1000
822.368
1000
822.368
1000
822.368
1000
822.368
1000
822.368
1000
822.368
1000
822.368
1000
822.368
1000
822.368
1000
822.368
1000
822.368
1000
822.368
1000
822.368
1000
822.368
1000
822.368
1000
822.368
1000
822.368
1000
822.368
1000
822.368
1000
822.368
1000
822.368
1000
822.368
1000
822.368
1000
822.368
1000
822.368
1000
822.368
1000
822.368
1000
822.368
1000
822.368
1000
822.368
1000
822.368
1000
822.368
1000
822.368
1000
822.368
1000
822.368
1000
822.368
1000
822.368
1000
822.368
1000
822.368
1000
822.368
1000
822.368
1000
822.368
1000
822.368
1000
822.368
1000
822.368
1000
822.368
1000
822.368
1000
822.368
1000
822.368
1000
822.368
1000
822.368
1000
822.368
1000
822.368
1000
822.368
1000
822.368
1000
822.368
1000
822.368
1000
822.368
1000
822.368
1000
822.368
1000
822.368
1000
822.368
1000
822.368
1000
822.368
1000
822.368
1000
822.368
1000
822.368
1000
822.368