/*--------------------------------*- C++ -*----------------------------------*\
| =========                 |                                                 |
| \\      /  F ield         | OpenFOAM Extend Project: Open Source CFD        |
|  \\    /   O peration     | Version:  1.6-ext                               |
|   \\  /    A nd           | Web:      www.extend-project.de                 |
|    \\/     M anipulation  |                                                 |
\*---------------------------------------------------------------------------*/
FoamFile
{
    version     2.0;
    format      ascii;
    class       dictionary;
    object      controlDict;
}
// * * * * * * * * * * * * * * * * * * * * * * * * * * * * * * * * * * * * * //

application     twoPhaseEulerFoam;

startFrom       latestTime;

startTime       0;

stopAt          endTime;

endTime         2;

deltaT          5e-4;

writeControl    adjustableRunTime;

writeInterval   0.01;

purgeWrite      0;

writeFormat     ascii;

writePrecision  6;

writeCompression uncompressed;

timeFormat      general;

timePrecision   6;

runTimeModifiable on;

adjustTimeStep  no;

maxCo           0.9;

maxDeltaT       1e-5;

functions
(
    fieldAverage1
    {
        // Type of functionObject
        type fieldAverage;

        // Where to load it from (if not already in solver)
        functionObjectLibs ("libfieldFunctionObjects.so");

        outputControl     outputTime;

        // Fields to be  averaged - runTime modifiable
        fields
        (
            Ua
            {
                mean            on;
                prime2Mean      off;
                base            time;
            }
            Ub
            {
                mean            on;
                prime2Mean      off;
                base            time;
            }
            alpha
            {
                mean            on;
                prime2Mean      off;
                base            time;
            }
            p
            {
                mean            on;
                prime2Mean      off;
                base            time;
            }
        );
    }
);

// ************************************************************************* //
