/*--------------------------------*- C++ -*----------------------------------*\
| =========                 |                                                 |
| \\      /  F ield         | OpenFOAM Extend Project: Open Source CFD        |
|  \\    /   O peration     | Version:  1.6-ext                               |
|   \\  /    A nd           | Web:      www.extend-project.de                 |
|    \\/     M anipulation  |                                                 |
\*---------------------------------------------------------------------------*/
FoamFile
{
    version     2.0;
    format      ascii;
    class       dictionary;
    object      fvSolution;
}
// * * * * * * * * * * * * * * * * * * * * * * * * * * * * * * * * * * * * * //

solvers
{
    p GAMG
    {
        tolerance        1e-8;
        relTol           0;

        smoother         DIC;
        nPreSweeps       0;
        nPostSweeps      2;
        nFinestSweeps    2;

        cacheAgglomeration true;
        nCellsInCoarsestLevel 10;
        agglomerator     faceAreaPair;
        mergeLevels      1;
    };
    Ua PBiCG
    {
        preconditioner   DILU;
        tolerance        1e-05;
        relTol           0;
    };
    Ub PBiCG
    {
        preconditioner   DILU;
        tolerance        1e-05;
        relTol           0;
    };
    alpha PBiCG
    {
        preconditioner   DILU;
        tolerance        1e-10;
        relTol           0;
    };
    beta PBiCG
    {
        preconditioner   DILU;
        tolerance        1e-10;
        relTol           0;
    };
    Theta PBiCG
    {
        preconditioner   DILU;
        tolerance        1e-05;
        relTol           0;
    };
    k PBiCG
    {
        preconditioner   DILU;
        tolerance        1e-05;
        relTol           0;
    };
    epsilon PBiCG
    {
        preconditioner   DILU;
        tolerance        1e-05;
        relTol           0;
    };
}

PISO
{
    nCorrectors     2;
    nNonOrthogonalCorrectors 0;
    nAlphaCorr      2;
    correctAlpha    yes;
    pRefCell        0;
    pRefValue       0;
}

relaxationFactors
{
    Ua              1;
    Ub              1;
    alpha           1;
    beta            1;
    Theta           1;
    k               1;
    epsilon         1;
}

// ************************************************************************* //
