/*--------------------------------*- C++ -*----------------------------------*\
| =========                 |                                                 |
| \\      /  F ield         | foam-extend: Open Source CFD                    |
|  \\    /   O peration     | Version:     3.2                                |
|   \\  /    A nd           | Web:         http://www.foam-extend.org         |
|    \\/     M anipulation  |                                                 |
\*---------------------------------------------------------------------------*/
FoamFile
{
    version     2.0;
    format      ascii;
    class       dictionary;
    location    "constant";
    object      rheologyProperties;
}
// * * * * * * * * * * * * * * * * * * * * * * * * * * * * * * * * * * * * * //

planeStress     yes;

rheology
   {
       type            linearElastic;
       rho             rho [1 -3 0 0 0 0 0] 7854;
       E               E [1 -1 -2 0 0 0 0] 200e+9;
       nu              nu [0 0 0 0 0 0 0] 0.3;
   }

// ************************************************************************* //
