/*--------------------------------*- C++ -*----------------------------------*\
| =========                 |                                                 |
| \\      /  F ield         | OpenFOAM: The Open Source CFD Toolbox           |
|  \\    /   O peration     | Version:  1.5                                   |
|   \\  /    A nd           | Web:      http://www.OpenFOAM.org               |
|    \\/     M anipulation  |                                                 |
\*---------------------------------------------------------------------------*/
FoamFile
{
    version     2.0;
    format      ascii;
    class       volScalarField;
    object      k;
}
// * * * * * * * * * * * * * * * * * * * * * * * * * * * * * * * * * * * * * //

dimensions      [0 2 -2 0 0 0 0];

internalField   uniform 1000;

boundaryField
{
    inlet           
    {
        type            fixedValue;
        value           uniform 1000;
    }

    outlet          
    {
        type            inletOutlet;
        inletValue      uniform 1000;
        value           uniform 1000;
    }

    bottomWall      
    {
        type            inletOutlet;
        inletValue      uniform 1000;
        value           uniform 1000;
    }

    topWall         
    {
        type            inletOutlet;
        inletValue      uniform 1000;
        value           uniform 1000;
    }

    prismWall       
    {
        type            zeroGradient;
    }

    defaultFaces    
    {
        type            empty;
    }
}

// ************************************************************************* //
