// -*- C++ -*-
// File generated by PyFoam - sorry for the ugliness

FoamFile
{
 version 2.0;
 format ascii; 	
 class dictionary; 	
 object decomposeParDict; 	
}

numberOfSubdomains 4;

method manual; 	//metis; //simple;

globalFaceZones (
    ggi1DomAZone
    ggi2DomAZone
); 	

manualCoeffs
{
  dataFile "manualDecomp.txt";
} 	

simpleCoeffs
{
  n (1 4 1);
  delta 0.001; 	
} 	

distributed no; 	

roots
  (
  ); 	

