/*--------------------------------*- C++ -*----------------------------------*\
| =========                 |                                                 |
| \\      /  F ield         | foam-extend: Open Source CFD                    |
|  \\    /   O peration     | Version:     3.2                                |
|   \\  /    A nd           | Web:         http://www.foam-extend.org         |
|    \\/     M anipulation  |                                                 |
\*---------------------------------------------------------------------------*/
FoamFile
{
    version     2.0;
    format      ascii;
    class       dictionary;
    object      fvSchemes;
}
// * * * * * * * * * * * * * * * * * * * * * * * * * * * * * * * * * * * * * //

ddtSchemes
{
    default steadyState; //Euler;
}

gradSchemes
{
    default         Gauss linear;
    grad(p)         Gauss linear;
}

divSchemes
{
    default         none;
    div(phi,U)      Gauss linearUpwind Gauss; //upwind;
    div((nuEff*dev(grad(U).T()))) Gauss linear;
    div(phi,epsilon) Gauss upwind;
    div(phi,k) Gauss upwind;
}

laplacianSchemes
{
    default         none;
    laplacian(nu,U) Gauss linear corrected;
    laplacian(rAU,pcorr) Gauss linear corrected;
    laplacian(rAU,p) Gauss linear corrected;
    laplacian(nuEff,U) Gauss linear corrected;
    laplacian((1|A(U)),p) Gauss linear corrected;
    laplacian(DepsilonEff,epsilon) Gauss linear corrected;
    laplacian(DkEff,k) Gauss linear corrected;
    laplacian(1,p) Gauss linear corrected;
}

interpolationSchemes
{
    default         linear;
    interpolate(HbyA) linear;
    interpolate(1|A) linear;
}

snGradSchemes
{
    default         corrected;
}

fluxRequired
{
    default         no;
    pcorr;
    p;
}

mixingPlane
{
    default         areaAveraging;
    U               areaAveraging;
    p               areaAveraging;
}

// ************************************************************************* //
