/*--------------------------------*- C++ -*----------------------------------*\
| =========                 |                                                 |
| \\      /  F ield         | foam-extend: Open Source CFD                    |
|  \\    /   O peration     | Version:     3.0                                |
|   \\  /    A nd           | Web:         http://www.extend-project.de       |
|    \\/     M anipulation  |                                                 |
\*---------------------------------------------------------------------------*/
FoamFile
{
    version     2.0;
    format      ascii;
    class       dictionary;
    object      fvSchemes;
}
// * * * * * * * * * * * * * * * * * * * * * * * * * * * * * * * * * * * * * //

d2dt2Schemes
{
    default none;
    d2dt2(D) Euler;
}

ddtSchemes
{
    default none;
    ddt(D) Euler;
}


gradSchemes
{
    default none;
}

divSchemes
{
    default none;
}

laplacianSchemes
{
    default none;
    laplacian(DD,D) Gauss linear corrected;
}

snGradSchemes
{
    default none;
    snGrad(D) corrected;
}

interpolationSchemes
{
    default none;
    interpolate(mu) linear;
    interpolate(lambda) linear;
    interpolate(grad(U)) linear;
}

// ************************************************************************* //
