/*--------------------------------*- C++ -*----------------------------------*\
| =========                 |                                                 |
| \\      /  F ield         | OpenFOAM Extend Project: Open Source CFD        |
|  \\    /   O peration     | Version:  1.6-ext                               |
|   \\  /    A nd           | Web:      www.extend-project.de                 |
|    \\/     M anipulation  |                                                 |
\*---------------------------------------------------------------------------*/
FoamFile
{
    version     2.0;
    format      ascii;
    class       dictionary;
    object      setFieldsDict;
}
// * * * * * * * * * * * * * * * * * * * * * * * * * * * * * * * * * * * * * //

defaultFieldValues
(
    volScalarFieldValue h0 0
    volScalarFieldValue h 0.01
    volVectorFieldValue U (0.1 0 0)
);

regions
(
    boxToCell
    {
        box (0.45 0.45 0) (0.55 0.55 0.1);

        fieldValues
        (
            volScalarFieldValue h0 0.001
            volScalarFieldValue h  0.009
        );
    }
);

// ************************************************************************* //
