/*--------------------------------*- C++ -*----------------------------------*\
| =========                 |                                                 |
| \\      /  F ield         | foam-extend: Open Source CFD                    |
|  \\    /   O peration     | Version:     3.2                                |
|   \\  /    A nd           | Web:         http://www.foam-extend.org         |
|    \\/     M anipulation  |                                                 |
\*---------------------------------------------------------------------------*/
FoamFile
{
    version     2.0;
    format      ascii;
    class       polyBoundaryMesh;
    location    "1e-05/polyMesh";
    object      boundary;
}
// * * * * * * * * * * * * * * * * * * * * * * * * * * * * * * * * * * * * * //

4
(
    space
    {
        type            wall;
        nFaces          160;
        startFace       27280;
    }
    freeSurfaceShadow
    {
        type            wall;
        nFaces          160;
        startFace       27440;
    }
    freeSurface
    {
        type            wall;
        nFaces          160;
        startFace       27600;
    }
    frontAndBackPlanes
    {
        type            empty;
        nFaces          27520;
        startFace       27760;
    }
)

// ************************************************************************* //
