/*---------------------------------------------------------------------------*\
| =========                 |                                                 |
| \\      /  F ield         | OpenFOAM: The Open Source CFD Toolbox           |
|  \\    /   O peration     | Version:  1.4                                   |
|   \\  /    A nd           | Web:      http://www.openfoam.org               |
|    \\/     M anipulation  |                                                 |
\*---------------------------------------------------------------------------*/

FoamFile
{
    version         2.0;
    format          ascii;

    root            "";
    case            "";
    instance        "";
    local           "";

    class           dictionary;
    object          blockMeshDict;
}

// * * * * * * * * * * * * * * * * * * * * * * * * * * * * * * * * * * * * * //

convertToMeters 1;

vertices        
(
(0 0 0)		//0
(1 0 0)		//1
(1 1 0)	    	//2
(0 1 0)		//3
(0 0 1)		//4
(1 0 1)		//5
(1 1 1)	    	//6
(0 1 1)		//7
);

blocks          
(
    hex ( 0  1  2  3  4  5 6 7) (10 10 10) simpleGrading (1 1 1)
);

edges           
(
);

patches         
(
    patch front 
    (
	( 4 5 6 7)
    )
    
    patch back 
    (
        ( 0 3 2 1)
    )
    
    patch left 
    (
        (0 4 7 3)
     )
    
    patch bottom
    (
	(0 1 5 4)
    )
	
    patch right
    (
	(1 2 6 5)
    )     

    patch top
    (
	(2 3 7 6)
    )

);

mergePatchPairs
(
);

// ************************************************************************* //
