/*--------------------------------*- C++ -*----------------------------------*\
| =========                 |                                                 |
| \\      /  F ield         | OpenFOAM Extend Project: Open source CFD        |
|  \\    /   O peration     | Version:  1.6-ext                               |
|   \\  /    A nd           | Web:      www.extend-project.de                 |
|    \\/     M anipulation  |                                                 |
\*---------------------------------------------------------------------------*/
FoamFile
{
    version     2.0;
    format      ascii;
    class       polyBoundaryMesh;
    location    "constant/polyMesh";
    object      boundary;
}
// * * * * * * * * * * * * * * * * * * * * * * * * * * * * * * * * * * * * * //

6
(
    front
    {
        type            patch;
        nFaces          100;
        startFace       2700;
    }
    back
    {
        type            patch;
        nFaces          100;
        startFace       2800;
    }
    left
    {
        type            patch;
        nFaces          100;
        startFace       2900;
    }
    bottom
    {
        type            patch;
        nFaces          100;
        startFace       3000;
    }
    right
    {
        type            patch;
        nFaces          100;
        startFace       3100;
    }
    top
    {
        type            patch;
        nFaces          100;
        startFace       3200;
    }
)

// ************************************************************************* //
