/*--------------------------------*- C++ -*----------------------------------*\
| =========                 |                                                 |
| \\      /  F ield         | OpenFOAM Extend Project: Open Source CFD        |
|  \\    /   O peration     | Version:  1.6-ext                               |
|   \\  /    A nd           | Web:      www.extend-project.de                 |
|    \\/     M anipulation  |                                                 |
\*---------------------------------------------------------------------------*/
FoamFile
{
    version     2.0;
    format      ascii;
    class       dictionary;
    object      thermalProperties;
}
// * * * * * * * * * * * * * * * * * * * * * * * * * * * * * * * * * * * * * //

thermal
{
  type constant;
  C               C [0 2 -2 -1 0 0 0] 434;
  k               k [1 1 -3 -1 0 0 0] 60.5;
  alpha           alpha [0 0 0 -1 0 0 0] 1e-05;
  T0              T0 [0 0 0 1 0 0 0] 0;
}

// ************************************************************************* //
