/*--------------------------------*- C++ -*----------------------------------*\
| =========                 |                                                 |
| \\      /  F ield         | OpenFOAM Extend Project: Open Source CFD        |
|  \\    /   O peration     | Version:  1.6-ext                               |
|   \\  /    A nd           | Web:      www.extend-project.de                 |
|    \\/     M anipulation  |                                                 |
\*---------------------------------------------------------------------------*/
FoamFile
{
    version     2.0;
    format      ascii;
    class       volScalarField;
    object      p;
}
// * * * * * * * * * * * * * * * * * * * * * * * * * * * * * * * * * * * * * //

dimensions      [1 -1 -2 0 0 0 0];

internalField   uniform 1;

boundaryField
{
    inlet
    {
        type            fixedValue;
        value           uniform 1;
    }

    outlet
    {
        type            waveTransmissive;
        field           p;
        phi             phi;
        rho             rho;
        psi             psi;
        gamma           1.4;
        fieldInf        1;
        lInf            3;
        inletOutlet     off;
        correctSupercritical off;
        value           uniform 1;
    }

    bottom
    {
        type            symmetryPlane;
    }

    top
    {
        type            symmetryPlane;
    }

    obstacle
    {
        type            zeroGradient;
    }

    defaultFaces
    {
        type            empty;
    }
}

// ************************************************************************* //
