/*--------------------------------*- C++ -*----------------------------------*\
| =========                 |                                                 |
| \\      /  F ield         | foam-extend: Open Source CFD                    |
|  \\    /   O peration     | Version:     4.0                                |
|   \\  /    A nd           | Web:         http://www.foam-extend.org         |
|    \\/     M anipulation  |                                                 |
\*---------------------------------------------------------------------------*/
FoamFile
{
    version     2.0;
    format      ascii;
    class       volScalarField;
    location    "0";
    object      k;
}
// * * * * * * * * * * * * * * * * * * * * * * * * * * * * * * * * * * * * * //

dimensions      [0 2 -2 0 0 0 0];

internalField   uniform 0.0005723;

boundaryField
{
    frontAndBack
    {
        type            empty;
    }
    inlet
    {
        type            inletOutlet;
        inletValue      uniform 0.0005723;
        value           uniform 0.0005723;
    }
    outlet
    {
        type            inletOutlet;
        inletValue      uniform 0.0005723;
        value           uniform 0.0005723;
    }
    solidWall
    {
        type            kqRWallFunction;
        value           uniform 0.0005723;
    }
}


// ************************************************************************* //
