/*--------------------------------*- C++ -*----------------------------------*\
| =========                 |                                                 |
| \\      /  F ield         | OpenFOAM Extend Project: Open Source CFD        |
|  \\    /   O peration     | Version:  1.6-ext                               |
|   \\  /    A nd           | Web:      www.extend-project.de                 |
|    \\/     M anipulation  |                                                 |
\*---------------------------------------------------------------------------*/
FoamFile
{
    version     2.0;
    format      ascii;
    class       dictionary;
    location    "constant";
    object      dynamicMeshDict;
}
// * * * * * * * * * * * * * * * * * * * * * * * * * * * * * * * * * * * * * //

dynamicFvMesh   solidBodyMotionFvMesh;

solidBodyMotionFvMeshCoeffs
{
    solidBodyMotionFunction SDA;
    SDACoeffs
    {
        CofG            ( 0 0 0 );
        lamda           50;
        rollAmax        0.22654;
        rollAmin        0.10472;
        heaveA          3.79;
        swayA           2.34;
        Q               2;
        Tp              13.93;
        Tpn             11.93;
        dTi             0.059;
        dTp             -0.001;
    }
}

// ************************************************************************* //
