/*--------------------------------*- C++ -*----------------------------------*\
| =========                 |                                                 |
| \\      /  F ield         | foam-extend: Open Source CFD                    |
|  \\    /   O peration     | Version:     3.2                                |
|   \\  /    A nd           | Web:         http://www.foam-extend.org         |
|    \\/     M anipulation  |                                                 |
\*---------------------------------------------------------------------------*/
FoamFile
{
    version     2.0;
    format      ascii;
    class       dictionary;
    object      multiTransportProperties;
}
// * * * * * * * * * * * * * * * * * * * * * * * * * * * * * * * * * * * * * //
dictionaryName  transportProperties;

multiSolver
{
    scalarTransportFoam
    {
        DT           DT [0 2 -1 0 0 0 0] 0.0;
    }
    icoFoam1
    {
        nu              nu [0 2 -1 0 0 0 0] 0.01;
    }
    icoFoam2
    {
        nu              nu [0 2 -1 0 0 0 0] 0.01;
    }
}
