/*--------------------------------*- C++ -*----------------------------------*\
| =========                 |                                                 |
| \\      /  F ield         | foam-extend: Open Source CFD                    |
|  \\    /   O peration     | Version:     3.2                                |
|   \\  /    A nd           | Web:         http://www.foam-extend.org         |
|    \\/     M anipulation  |                                                 |
\*---------------------------------------------------------------------------*/
FoamFile
{
    version     2.0;
    format      ascii;
    class       volScalarField;
    object      k;
}
// * * * * * * * * * * * * * * * * * * * * * * * * * * * * * * * * * * * * * //

dimensions      [0 2 -2 0 0 0 0];

internalField   uniform 2e-05;

boundaryField
{
    inlet
    {
        type            fixedValue;
        value           uniform 2e-05;
    }

    outlet
    {
        type            inletOutlet;
        inletValue      uniform 2e-05;
        value           uniform 2e-05;
    }

    upperWall
    {
        type            zeroGradient;
        value           uniform 2e-05;
    }

    lowerWall
    {
        type            zeroGradient;
        value           uniform 2e-05;
    }

    frontAndBack
    {
        type            empty;
    }
}

// ************************************************************************* //
