/*---------------------------------------------------------------------------*\
| =========                 |                                                 |
| \\      /  F ield         | OpenFOAM: The Open Source CFD Toolbox           |
|  \\    /   O peration     | Version:  1.0                                   |
|   \\  /    A nd           | Web:      http://www.openfoam.org               |
|    \\/     M anipulation  |                                                 |
\*---------------------------------------------------------------------------*/

FoamFile
{
    version         2.0;
    format          ascii;

    root            "";
    case            "";
    instance        "";
    local           "";

    class           dictionary;
    object          fvSchemes;
}

// * * * * * * * * * * * * * * * * * * * * * * * * * * * * * * * * * * * * * //

d2dt2Schemes
{
    default     none;
    d2dt2(rho,DU) Euler;
}

gradSchemes
{
    default          none;
    grad(DU)         extendedLeastSquares 0;
    snGradCorr(DU)   extendedLeastSquares 0;
}

divSchemes
{
    default         none;
    div(sigma)      Gauss linear;
}

laplacianSchemes
{
    default         	none;
    laplacian(mu,DU) 	Gauss linear corrected;
    laplacian(DDU,DU) Gauss linear corrected;
}

snGradSchemes
{
    snGrad(DU)       corrected;
}

interpolationSchemes
{
    default                  none;
    interpolate(sigma)       linear;
}

// ************************************************************************* //
