/*---------------------------------------------------------------------------*\
| =========                 |                                                 |
| \\      /  F ield         | OpenFOAM: The Open Source CFD Toolbox           |
|  \\    /   O peration     | Version:  1.0                                   |
|   \\  /    A nd           | Web:      http://www.openfoam.org               |
|    \\/     M anipulation  |                                                 |
\*---------------------------------------------------------------------------*/

FoamFile
{
    version         2.0;
    format          ascii;

    root            "";
    case            "";
    instance        "";
    local           "";

    class           dictionary;
    object          fvSolution;
}

// * * * * * * * * * * * * * * * * * * * * * * * * * * * * * * * * * * * * * //

solvers
{
	DU
	{
	    solver          PCG;
	    preconditioner  DIC;
	    tolerance       1e-09;
	    relTol          0.001;
	}
}

stressedFoam
{
    nCorrectors     	5000;
    DU               	1e-06;
}


relaxationFactors
{
//    DU 0.7;
}


// ************************************************************************* //
