/*--------------------------------*- C++ -*----------------------------------*\
| =========                 |                                                 |
| \\      /  F ield         | foam-extend: Open Source CFD                    |
|  \\    /   O peration     | Version:     4.1                                |
|   \\  /    A nd           | Web:         http://www.foam-extend.org         |
|    \\/     M anipulation  |                                                 |
\*---------------------------------------------------------------------------*/
FoamFile
{
    version     2.0;
    format      ascii;
    class       volScalarField;
    location    "0";
    object      nut;
}
// * * * * * * * * * * * * * * * * * * * * * * * * * * * * * * * * * * * * * //

dimensions      [0 2 -1 0 0 0 0];

internalField   uniform 0;

boundaryField
{
    ground
    {
        type            nutkWallFunction;
        value           uniform 0;
    }

    igloo_region0
    {
        type            nutkWallFunction;
        value           uniform 0;
    }

    twoFridgeFreezers_seal_0
    {
        type            nutkWallFunction;
        value           uniform 0;
    }

    twoFridgeFreezers_herring_1
    {
        type            nutkWallFunction;
        value           uniform 0;
    }
}


// ************************************************************************* //
