/*--------------------------------*- C++ -*----------------------------------*\
| =========                 |                                                |
| \\      /  F ield         | cfMesh: A library for mesh generation          | 
|  \\    /   O peration     |                                                |
|   \\  /    A nd           | Author: Franjo Juretic                         | 
|    \\/     M anipulation  | E-mail: franjo.juretic@c-fields.com            |
\*---------------------------------------------------------------------------*/

FoamFile
{
    version   2.0;
    format    ascii;
    class     dictionary;
    location  "system";
    object    meshDict;
}

// * * * * * * * * * * * * * * * * * * * * * * * * * * * * * * * * * * * * * //
application	;
deltaT	1;
endTime	50;
graphFormat	raw;
purgeWrite	0;
runTimeModifiable	yes;
startFrom	startTime;
startTime	0;
stopAt	endTime;
timeFormat	general;
timePrecision	6;
writeCompression	uncompressed;
writeControl	timeStep;
writeFormat	ascii;
writeInterval	20;
writePrecision	6;

// ************************************************************************* //