// -*- C++ -*-
// File generated by PyFoam - sorry for the ugliness

FoamFile
{
 version 2.0;
 format ascii; 	
 class volScalarField; 	
 object T; 	
}

dimensions      [0 0 0 1 0 0 0];


internalField uniform 100; 	

boundaryField
{
    inlet
    {
        type            fixedValue;
        value           uniform 500;
    }
    outlet
    {
        type            fixedValue;
        value           uniform 100;
    } 	
    wallProlongation
    {
        type zeroGradient;
    } 	
    wallDiffuser
    {
        type zeroGradient;
    } 	
    statSwirlWallB_C
    {
        type zeroGradient;
    } 	
    rotSwirlWallA_BB
    {
        type zeroGradient;
    } 	

    sideWallA_BB_cyclic1
    {
        type            cyclicGgi;
    }

    sideWallA_BB_cyclic2
    {
        type            cyclicGgi;
    }

    B_UPSTREAM
    {
        type            ggi;
    }

    B_DOWNSTREAM
    {
        type            ggi;
    }

    sideWallB_C_cyclic1
    {
        type            cyclicGgi;
    }

    sideWallB_C_cyclic2
    {
        type            cyclicGgi;
    }

    sideWallC_D_cyclic1
    {
        type            cyclicGgi;
    }

    sideWallC_D_cyclic2
    {
        type            cyclicGgi;
    }

    sideWallD_E_cyclic1
    {
        type            cyclicGgi;
    }

    sideWallD_E_cyclic2
    {
        type            cyclicGgi;
    }

    sideWallE_F_cyclic1
    {
        type            cyclicGgi;
    }

    sideWallE_F_cyclic2
    {
        type            cyclicGgi;
    }

} 	// ************************************************************************* //

