/*--------------------------------*- C++ -*----------------------------------*\
| =========                 |                                                 |
| \\      /  F ield         | OpenFOAM: The Open Source CFD Toolbox           |
<<<<<<< Updated upstream:tutorials/multiphase/compressibleInterFoam/depthCharge3D/constant/turbulenceProperties
|  \\    /   O peration     | Version:  1.6                                   |
=======
|  \\    /   O peration     | Version:  1.6-ext                               |
>>>>>>> Stashed changes:tutorials/multiphase/compressibleInterFoam/depthCharge3D/0/pd.org
|   \\  /    A nd           | Web:      www.OpenFOAM.org                      |
|    \\/     M anipulation  |                                                 |
\*---------------------------------------------------------------------------*/
FoamFile
{
    version     2.0;
    format      ascii;
    class       dictionary;
    location    "constant";
    object      turbulenceProperties;
}
// * * * * * * * * * * * * * * * * * * * * * * * * * * * * * * * * * * * * * //

simulationType  LESModel;


// ************************************************************************* //
