/*--------------------------------*- C++ -*----------------------------------*\
| =========                 |                                                 |
| \\      /  F ield         | foam-extend: Open Source CFD                    |
|  \\    /   O peration     | Version:     3.1                                |
|   \\  /    A nd           | Web:         http://www.extend-project.de       |
|    \\/     M anipulation  |                                                 |
\*---------------------------------------------------------------------------*/
FoamFile
{
    version     2.0;
    format      ascii;
    class       dictionary;
    object      dynamicMeshDict;
}
// * * * * * * * * * * * * * * * * * * * * * * * * * * * * * * * * * * * * * //

twoDMotion      yes;

dynamicFvMesh   dynamicMotionSolverFvMesh;

solver          laplace;

diffusivity     file;
// diffusivity     uniform;

frozenDiffusion off;

distancePatches
(
    movingWall
    farFieldMoving
);

// ************************************************************************* //
