/*--------------------------------*- C++ -*----------------------------------*\
| =========                 |                                                 |
| \\      /  F ield         | foam-extend: Open Source CFD                    |
|  \\    /   O peration     | Version:     3.2                                |
|   \\  /    A nd           | Web:         http://www.foam-extend.org         |
|    \\/     M anipulation  |                                                 |
\*---------------------------------------------------------------------------*/
FoamFile
{
    version     2.0;
    format      ascii;
    class       dictionary;
    object      blockMeshDict;
}
// * * * * * * * * * * * * * * * * * * * * * * * * * * * * * * * * * * * * * //

convertToMeters 0.05;

vertices
(
    (0 -1 0)
    (0 0 0)
    (0 1 0)
    (0.1 -1 0)
    (0.1 0 0)
    (0.1 1 0)
    (0 -1 0.1)
    (0 0 0.1)
    (0 1 0.1)
    (0.1 -1 0.1)
    (0.1 0 0.1)
    (0.1 1 0.1)
);

blocks
(
    hex (0 3 4 1 6 9 10 7) (1 40 1) simpleGrading (1 1 1)
    hex (1 4 5 2 7 10 11 8) (1 40 1) simpleGrading (1 1 1)
);

edges
(
);

boundary
(
    lowerWall
    {
        type wall;
        faces
        (
            (0 3 9 6)
        );
    }

    upperWall
    {
        type wall;
        faces
        (
            (2 8 11 5)
        );
    }
);

mergePatchPairs
(
);

// ************************************************************************* //
