/*--------------------------------*- C++ -*----------------------------------*\
| =========                 |                                                 |
| \\      /  F ield         | foam-extend: Open Source CFD                    |
|  \\    /   O peration     | Version:     4.1                                |
|   \\  /    A nd           | Web:         http://www.foam-extend.org         |
|    \\/     M anipulation  |                                                 |
\*---------------------------------------------------------------------------*/
FoamFile
{
    version     2.0;
    format      ascii;
    class       polyBoundaryMesh;
    location    "constant/polyMesh";
    object      boundary;
}
// * * * * * * * * * * * * * * * * * * * * * * * * * * * * * * * * * * * * * //

3
(
    lowerWall
    {
        type            wall;
        nFaces          1;
        startFace       79;
    }
    upperWall
    {
        type            wall;
        nFaces          1;
        startFace       80;
    }
    defaultFaces
    {
        type            empty;
        nFaces          320;
        startFace       81;
    }
)


// ************************************************************************* //
