/*--------------------------------*- C++ -*----------------------------------*\
| =========                 |                                                 |
| \\      /  F ield         | OpenFOAM Extend Project: Open Source CFD        |
|  \\    /   O peration     | Version:  1.6-ext                               |
|   \\  /    A nd           | Web:      www.extend-project.de                 |
|    \\/     M anipulation  |                                                 |
\*---------------------------------------------------------------------------*/
FoamFile
{
    version     2.0;
    format      ascii;
    class       polyBoundaryMesh;
    location    "constant/polyMesh";
    object      boundary;
}
// * * * * * * * * * * * * * * * * * * * * * * * * * * * * * * * * * * * * * //

4
(
    inlet
    {
        type            patch;
        nFaces          25;
        startFace       3650;
    }
    outlet
    {
        type            patch;
        nFaces          25;
        startFace       3675;
    }
    walls
    {
        type            wall;
        nFaces          150;
        startFace       3700;
    }
    defaultFaces
    {
        type            empty;
        nFaces          3750;
        startFace       3850;
    }
)

// ************************************************************************* //
