/*--------------------------------*- C++ -*----------------------------------*\
| =========                 |                                                 |
| \\      /  F ield         | OpenFOAM Extend Project: Open Source CFD        |
|  \\    /   O peration     | Version:  1.6-ext                               |
|   \\  /    A nd           | Web:      www.extend-project.de                 |
|    \\/     M anipulation  |                                                 |
\*---------------------------------------------------------------------------*/
FoamFile
{
    version     2.0;
    format      ascii;
    class       volScalarField;
    object      Theta;
}
// * * * * * * * * * * * * * * * * * * * * * * * * * * * * * * * * * * * * * //

dimensions          [ 0 2 -2 0 0 0 0 ];

internalField   uniform 0.0;

boundaryField
{
    inlet
    {
        type            fixedValue;
        value           uniform 1.0e-7;
    }

    outlet
    {
        type            inletOutlet;
        phi             phia;
        inletValue      uniform 1.0e-7;
        value           uniform 1.0e-7;
    }

    walls
    {
        type            zeroGradient;
    }

    defaultFaces
    {
        type            empty;
    }
}

// ************************************************************************* //
