/*--------------------------------*- C++ -*----------------------------------*\
| =========                 |                                                 |
| \\      /  F ield         | OpenFOAM: The Open Source CFD Toolbox           |
|  \\    /   O peration     | Version:  1.4                                   |
|   \\  /    A nd           | Web:      http://www.openfoam.org               |
|    \\/     M anipulation  |                                                 |
\*---------------------------------------------------------------------------*/

FoamFile
{
    version         2.0;
    format          ascii;
    class           volScalarField;
    object          alpha1;
}

// * * * * * * * * * * * * * * * * * * * * * * * * * * * * * * * * * * * * * //

dimensions [0 0 0 0 0 0 0];

internalField uniform 0;

boundaryField
{
    ibCylinder
    {
        type immersedBoundary;
        refValue uniform 0;
        refGradient  uniform 0;
        fixesValue no;

        setDeadCellValue   yes;
        deadCellValue      0;

        value uniform 0;
    }

    left
    {
        type zeroGradient;
    }

    right
    {
        type zeroGradient;
    }

    top
    {
        type inletOutlet;
        inletValue uniform 0;
        value uniform 0;
    }

    bottom
    {
        type zeroGradient;
    }

    frontAndBack
    {
        type empty;
    }
}


// ************************************************************************* //
