/*---------------------------------------------------------------------------*\
| =========                 |                                                 |
| \\      /  F ield         | OpenFOAM: The Open Source CFD Toolbox           |
|  \\    /   O peration     | Version:  1.0                                   |
|   \\  /    A nd           | Web:      http://www.openfoam.org               |
|    \\/     M anipulation  |                                                 |
\*---------------------------------------------------------------------------*/

FoamFile
{
    version         2.0;
    format          ascii;

    root            "";
    case            "";
    instance        "";
    local           "";

    class           dictionary;
    object          fvSchemes;
}

// * * * * * * * * * * * * * * * * * * * * * * * * * * * * * * * * * * * * * //

d2dt2Schemes
{
    default     none;
}

ddtSchemes
{
    default     none;
//    ddt(DU)     Euler;
    ddt(DU)     backward;
}


gradSchemes
{
    default         none;
    grad(DU)        Gauss linear;
    grad(Us)        Gauss linear;
    snGradCorr(DU)  Gauss linear;
}

divSchemes
{
    default         none;
    div(sigma)      Gauss linear;
}

laplacianSchemes
{
    default         	none;
    laplacian(DDU,DU) 	Gauss linear corrected;
}

snGradSchemes
{
    default none;
//    snGrad(U)       corrected;
}

interpolationSchemes
{
    default                  none;
    interpolate(sigma) linear;
    interpolate(mu) linear;
}

// ************************************************************************* //
