/*--------------------------------*- C++ -*----------------------------------*\
| =========                 |                                                 |
| \\      /  F ield         | foam-extend: Open Source CFD                    |
|  \\    /   O peration     | Version:     4.1                                |
|   \\  /    A nd           | Web:         http://www.foam-extend.org         |
|    \\/     M anipulation  |                                                 |
\*---------------------------------------------------------------------------*/
FoamFile
{
    version     2.0;
    format      ascii;
    class       dictionary;
    object      oversetMeshDict;
}

// * * * * * * * * * * * * * * * * * * * * * * * * * * * * * * * * * * * * * //


interpolation
{
    interpolationSchemes (injection);

    default injection;
}

holePatches  ( cylinder );

regions
(
    background
    {
        donorRegions ( front );

        fringe
        {
            type manual;
            holes       "backHole";
            acceptors   "backFringe";
        }
    }

    front
    {
        donorRegions ( background );

        fringe
        {
            type faceCells;
            patches ( outerCylinder );
        }
    }
);


// ************************************************************************* //
