/*--------------------------------*- C++ -*----------------------------------*\
| =========                 |                                                 |
| \\      /  F ield         | foam-extend: Open Source CFD                    |
|  \\    /   O peration     | Version:     3.2                                |
|   \\  /    A nd           | Web:         http://www.foam-extend.org         |
|    \\/     M anipulation  |                                                 |
\*---------------------------------------------------------------------------*/
FoamFile
{
    version     2.0;
    format      ascii;
    class       dictionary;
    location    "constant";
    object      moleculeProperties;
}
// * * * * * * * * * * * * * * * * * * * * * * * * * * * * * * * * * * * * * //

Ar
{
    siteIds                     (Ar);
    pairPotentialSiteIds        (Ar);
    siteReferencePositions
    (
        (0 0 0)
    );
    siteMasses
    (
        6.63352033e-26
    );
    siteCharges
    (
        0
    );
}

// ************************************************************************* //
