/*--------------------------------*- C++ -*----------------------------------*\
| =========                 |                                                 |
| \\      /  F ield         | foam-extend: Open Source CFD                    |
|  \\    /   O peration     | Version:     4.0                                |
|   \\  /    A nd           | Web:         http://www.foam-extend.org         |
|    \\/     M anipulation  |                                                 |
\*---------------------------------------------------------------------------*/
FoamFile
{
    version     2.0;
    format      ascii;
    class       dictionary;
    object      fvSolution;
}
// * * * * * * * * * * * * * * * * * * * * * * * * * * * * * * * * * * * * * //

solvers
{
    p PCG
    {
        preconditioner
        {
            type         DIC;
        }

        tolerance        1e-06;
        relTol           0.01;
        minIter          0;
        maxIter          200;
    };

    U BiCGStab
    {
        preconditioner
        {
            type         DILU;
        }

        tolerance        1e-05;
        relTol           0.1;
        minIter          0;
        maxIter          200;
    };

    k BiCGStab
    {
        preconditioner
        {
            type         DILU;
        }

        tolerance        1e-05;
        relTol           0.1;
        minIter          0;
        maxIter          200;
    };

    epsilon BiCGStab
    {
        preconditioner
        {
            type         DILU;
        }

        tolerance        1e-05;
        relTol           0.1;
        minIter          0;
        maxIter          200;
    };

    R BiCGStab
    {
        preconditioner
        {
            type         DILU;
        }

        tolerance        1e-05;
        relTol           0.1;
        minIter          0;
        maxIter          200;
    };

    nuTilda BiCGStab
    {
        preconditioner
        {
            type         DILU;
        }

        tolerance        1e-05;
        relTol           0.1;
        minIter          0;
        maxIter          200;
    };
}

SIMPLE
{
    nNonOrthogonalCorrectors 0;
}

relaxationFactors
{
    p               0.3;
    U               0.7;
    k               0.7;
    epsilon         0.7;
    R               0.7;
    nuTilda         0.7;
}

// ************************************************************************* //
