/*--------------------------------*- C++ -*----------------------------------*\
| =========                 |                                                 |
| \\      /  F ield         | foam-extend: Open Source CFD                    |
|  \\    /   O peration     | Version:     3.2                                |
|   \\  /    A nd           | Web:         http://www.foam-extend.org         |
|    \\/     M anipulation  |                                                 |
\*---------------------------------------------------------------------------*/
FoamFile
{
    version     2.0;
    format      ascii;
    class       dictionary;
    object      fvSchemes;
}
// * * * * * * * * * * * * * * * * * * * * * * * * * * * * * * * * * * * * * //

ddtSchemes
{
    default         none;

    ddt(rho,U)      steadyState;
    ddt(rho,h)      steadyState;
    ddt(psi,p)      steadyInertial phi rho 0.5;

    U               steadyState;
    T               steadyState;
    p               steadyState;
}

gradSchemes
{
    default         Gauss linear;
}

divSchemes
{
    default          none;

    div(phi,U)       Gauss upwind;
//     div(phi,U)       Gauss linearUpwind faceLimited Gauss linear 1.0;
//     div(phi,U)      Gauss vanLeerDC;

    div(phi,h)       Gauss upwind;
//     div(phi,h)      Gauss vanLeerDC;

    div(phid,p)      Gauss upwind;
//     div(phid,p)      Gauss vanLeerDC;

    div(phi,k)       Gauss upwind;
    div(phi,epsilon) Gauss upwind;
    div((muEff*dev2(grad(U).T()))) Gauss linear;

    div(U,p)         Gauss linear;

    div(U)           Gauss linear;
}

laplacianSchemes
{
    default           Gauss linear corrected;
}

interpolationSchemes
{
    default           linear;
}

snGradSchemes
{
    default           corrected;
}

fluxRequired
{
    default           no;
    p;
}

// ************************************************************************* //
