/*--------------------------------*- C++ -*----------------------------------*\
| =========                 |                                                 |
| \\      /  F ield         | OpenFOAM Extend Project: Open Source CFD        |
|  \\    /   O peration     | Version:  1.6-ext                               |
|   \\  /    A nd           | Web:      www.extend-project.de                 |
|    \\/     M anipulation  |                                                 |
\*---------------------------------------------------------------------------*/
FoamFile
{
    version     2.0;
    format      ascii;
    class       dictionary;
    object      fvSolution;
}
// * * * * * * * * * * * * * * * * * * * * * * * * * * * * * * * * * * * * * //

solvers
{
    blockVar
    {
        solver           BiCGStab;
        preconditioner   Cholesky;

        tolerance        1e-09;
        relTol           0.01;

        minIter          1;
        maxIter          1000;
    };
}

SIMPLE
{
    nNonOrthogonalCorrectors 0;
}

relaxationFactors
{
    T    0.9;
    Ts   0.9;
}

// ************************************************************************* //
