/*--------------------------------*- C++ -*----------------------------------*\
| =========                 |                                                 |
| \\      /  F ield         | OpenFOAM Extend Project: Open Source CFD        |
|  \\    /   O peration     | Version:  1.6-ext                               |
|   \\  /    A nd           | Web:      www.extend-project.de                 |
|    \\/     M anipulation  |                                                 |
\*---------------------------------------------------------------------------*/
FoamFile
{
    version     2.0;
    format      ascii;
    class       polyBoundaryMesh;
    object      boundary;
}
// * * * * * * * * * * * * * * * * * * * * * * * * * * * * * * * * * * * * * //

5
(
topSurface
{
    type patch;
    nFaces 6;
    startFace 16;
}

bottomSurface
{
    type patch;
    nFaces 6;
    startFace 22;
}

fixedEnd
{
    type wall;
    nFaces 2;
    startFace 28;
}

tractionEnd
{
    type patch;
    nFaces 2;
    startFace 30;
}

defaultFaces
{
    type empty;
    nFaces 24;
    startFace 32;
}
)

// ************************************************************************* //
