/*--------------------------------*- C++ -*----------------------------------*\
| =========                 |                                                 |
| \\      /  F ield         | foam-extend: Open Source CFD                    |
|  \\    /   O peration     | Version:     3.2                                |
|   \\  /    A nd           | Web:         http://www.foam-extend.org         |
|    \\/     M anipulation  |                                                 |
\*---------------------------------------------------------------------------*/
FoamFile
{
    version     2.0;
    format      ascii;
    class       polyBoundaryMesh;
    location    "constant/polyMesh";
    object      boundary;
}
// * * * * * * * * * * * * * * * * * * * * * * * * * * * * * * * * * * * * * //

3
(
    fixedWalls
    {
        type            wall;
        nFaces          10800;
        startFace       316800;
    }
    inlet
    {
        type            patch;
        nFaces          1800;
        startFace       327600;
    }
    outlet
    {
        type            patch;
        nFaces          1800;
        startFace       329400;
    }
)

// ************************************************************************* //
