/*--------------------------------*- C++ -*----------------------------------*\
| =========                 |                                                 |
| \\      /  F ield         | foam-extend: Open Source CFD                    |
|  \\    /   O peration     | Version:     3.2                                |
|   \\  /    A nd           | Web:         http://www.foam-extend.org         |
|    \\/     M anipulation  |                                                 |
\*---------------------------------------------------------------------------*/
FoamFile
{
    version     2.0;
    format      ascii;
    class       volVectorField;
    location    "0";
    object      U;
}
// * * * * * * * * * * * * * * * * * * * * * * * * * * * * * * * * * * * * * //

dimensions      [0 1 0 0 0 0 0];

internalField   uniform (0 0 0);

boundaryField
{
    top
    {
        type            timeVaryingFixedDisplacementZeroShear;
        nonLinear       totalLagrangian;
        fileName        "$FOAM_CASE/constant/timeVsDisp";
        outOfBounds     clamp;
        value           uniform ( 0 0 0 );
    }

    bottom
    {
        type            symmetryPlane;
    }

    left
    {
        type            symmetryPlane;
    }

    right
    {
        type            solidTraction;
        nonLinear       totalLagrangian;
        traction        uniform (0 0 0);
        pressure        uniform 0;
        value           uniform (0 0 0);
    }

    frontAndBack
    {
        type empty;
    }
}

// ************************************************************************* //
