/*--------------------------------*- C++ -*----------------------------------*\
| =========                 |                                                 |
| \\      /  F ield         | foam-extend: Open Source CFD                    |
|  \\    /   O peration     | Version:     3.2                                |
|   \\  /    A nd           | Web:         http://www.foam-extend.org         |
|    \\/     M anipulation  | For copyright notice see file Copyright         |
\*---------------------------------------------------------------------------*/
FoamFile
{
    version     2.0;
    format      ascii;
    class       dictionary;
    object      fvSolution;
}
// * * * * * * * * * * * * * * * * * * * * * * * * * * * * * * * * * * * * * //

solvers
{
    p
    {
        solver           BiCGStab;
        preconditioner   DILU;

        minIter          1;
        maxIter          1000;
        tolerance        1e-7;
        relTol           0.01;
    }

    U
    {
        solver           BiCGStab;
        preconditioner   DILU;

        minIter          1;
        maxIter          1000;
        tolerance        1e-7;
        relTol           0.1;
    }
    k
    {
        solver           BiCGStab;
        preconditioner   DILU;

        minIter          1;
        maxIter          1000;
        tolerance        1e-7;
        relTol           0.1;
    }
    omega
    {
        solver           BiCGStab;
        preconditioner   DILU;

        minIter          1;
        maxIter          1000;
        tolerance        1e-7;
        relTol           0.1;
    }
}


SIMPLE
{
    pRefCell 0;
    pRefValue 0;
    nNonOrthogonalCorrectors 0;
}

PISO
{
    pRefCell 0;
    pRefValue 0;

    nCorrectors 4;
}

relaxationFactors
{
    U  0.7;
    p  0.3;
    k  0.7;
    omega  0.7;
}


// ************************************************************************* //
