/*--------------------------------*- C++ -*----------------------------------*\
| =========                 |                                                 |
| \\      /  F ield         | OpenFOAM Extend Project: Open source CFD        |
|  \\    /   O peration     | Version:  1.6-ext                               |
|   \\  /    A nd           | Web:      www.extend-project.de                 |
|    \\/     M anipulation  |                                                 |
\*---------------------------------------------------------------------------*/
FoamFile
{
    version     2.0;
    format      ascii;
    class       dictionary;
    location    "system";
    object      controlDict;
}
// * * * * * * * * * * * * * * * * * * * * * * * * * * * * * * * * * * * * * //

application         interTrackFoam;

startFrom           latestTime;

startTime           0;

stopAt              endTime;

endTime             10;

deltaT              0.001;

writeControl        runTime;

writeInterval       0.01;

cycleWrite          0;

writeFormat         ascii;

writeCompression    compressed;

timeFormat          general;

timePrecision       6;

runTimeModifiable   yes;

// ************************************************************************* //


