/*--------------------------------*- C++ -*----------------------------------*\
| =========                 |                                                 |
| \\      /  F ield         | foam-extend: Open Source CFD                    |
|  \\    /   O peration     | Version:     4.0                                |
|   \\  /    A nd           | Web:         http://www.foam-extend.org         |
|    \\/     M anipulation  |                                                 |
\*---------------------------------------------------------------------------*/
FoamFile
{
    version     2.0;
    format      ascii;
    class       dictionary;
    object      decomposeParDict;
}
// * * * * * * * * * * * * * * * * * * * * * * * * * * * * * * * * * * * * * //

// numberOfSubdomains 2;
// method simple;

numberOfSubdomains 7;
method scotch;

simpleCoeffs
{
    n (2 1 1);
    delta           0.001;
}

manualCoeffs
{
    dataFile        "cellDecomposition";
}

distributed     no;

roots
(
);


// ************************************************************************* //
