/*--------------------------------*- C++ -*----------------------------------*\
| =========                 |                                                 |
| \\      /  F ield         | foam-extend: Open Source CFD                    |
|  \\    /   O peration     | Version:     4.1                                |
|   \\  /    A nd           | Web:         http://www.foam-extend.org         |
|    \\/     M anipulation  |                                                 |
\*---------------------------------------------------------------------------*/
FoamFile
{
    version     2.0;
    format      ascii;
    class       dictionary;
    object      fvSolution;
}
// * * * * * * * * * * * * * * * * * * * * * * * * * * * * * * * * * * * * * //

solvers
{
    "p|pFinal|pcorr"
    {
        solver          CG;
        preconditioner  Cholesky;
        minIter         1;
        maxIter         1000;
        tolerance       1e-7;
        relTol          0.0;
    }
    "U|UFinal"
    {
        solver           BiCGStab;
        preconditioner   ILU0;

        minIter          1;
        maxIter          1000;
        tolerance        1e-08;
        relTol           0;
    }
}

SIMPLE
{
    nNonOrthogonalCorrectors 1;

    pRefPoint (0 -0.45 0.05);
    pRefValue 0;
}

PIMPLE
{
    nOuterCorrectors 4;
    nCorrectors     2;
    nNonOrthogonalCorrectors 0;

    pRefPoint (0 -0.45 0.05);
    pRefValue 0;
    checkMeshCourantNo no;
    correctPhi yes;
}

PISO
{
    nNonOrthogonalCorrectors 1;
}

relaxationFactors
{
    equations
    {
        U         1;
        UFinal    1;
    }
    fields
    {
    }
}


// ************************************************************************* //
