/*--------------------------------*- C++ -*----------------------------------*\
| =========                 |                                                 |
| \\      /  F ield         | OpenFOAM: The Open Source CFD Toolbox           |
|  \\    /   O peration     | Version:  1.5-dev                               |
|   \\  /    A nd           | Web:      http://www.OpenFOAM.org               |
|    \\/     M anipulation  |                                                 |
\*---------------------------------------------------------------------------*/
FoamFile
{
    version     2.0;
    format      ascii;
    class       polyBoundaryMesh;
    location    "constant/polyMesh";
    object      boundary;
}
// * * * * * * * * * * * * * * * * * * * * * * * * * * * * * * * * * * * * * //

5
(
    inlet
    {
        type            patch;
        nFaces          120;
        startFace       44580;
    }
    fixedWalls
    {
        type            wall;
        nFaces          390;
        startFace       44700;
    }
    outlet
    {
        type            patch;
        nFaces          30;
        startFace       45090;
    }
    simetry
    {
        type            symmetryPlane;
        nFaces          300;
        startFace       45120;
    }
    frontAndBack
    {
        type            empty;
        nFaces          45000;
        startFace       45420;
    }
)

// ************************************************************************* //
