/*--------------------------------*- C++ -*----------------------------------*\
| =========                 |                                                 |
| \\      /  F ield         | foam-extend: Open Source CFD                    |
|  \\    /   O peration     | Version:     3.2                                |
|   \\  /    A nd           | Web:         http://www.foam-extend.org         |
|    \\/     M anipulation  |                                                 |
\*---------------------------------------------------------------------------*/
FoamFile
{
    version     2.0;
    format      ascii;
    class       dictionary;
    location    "constant/polyMesh";
    object      blockMeshDict;
}
// * * * * * * * * * * * * * * * * * * * * * * * * * * * * * * * * * * * * * //

convertToMeters 1;

vertices
(
 (0 0 0)
 (2 0 0)
 (2 0.1 0)
 (0 0.1 0)
 (0 0 0.1)
 (2 0 0.1)
 (2 0.1 0.1)
 (0 0.1 0.1)
);

blocks
(
 hex (0 1 2 3 4 5 6 7) (50 5 1) simpleGrading (1 1 1)
);

edges
(
);

patches
(
 patch top
 (
  (2 3 7 6)
  )

 patch left
 (
  (3 0 4 7)
  )

 patch right
 (
  (1 2 6 5)
  )

 patch bottom
 (
  (0 1 5 4)
  )

 empty frontAndBack
 (
  (0 1 2  3)
  (7 6 5 4)
  )
 );

mergePatchPairs
(
);

// ************************************************************************* //
