/*--------------------------------*- C++ -*----------------------------------*\
| =========                 |                                                 |
| \\      /  F ield         | foam-extend: Open Source CFD                    |
|  \\    /   O peration     | Version:     4.0                                |
|   \\  /    A nd           | Web:         http://www.foam-extend.org         |
|    \\/     M anipulation  |                                                 |
\*---------------------------------------------------------------------------*/
FoamFile
{
    version     2.0;
    format      ascii;
    class       dictionary;
    object      decomposeParDict;
}
// * * * * * * * * * * * * * * * * * * * * * * * * * * * * * * * * * * * * * //

numberOfSubdomains 8;

//method               metis;
method    patchConstrained;

globalFaceZones
(
    GVCYCLIC2Zone
    RUCYCLIC1Zone
    RUINLETZone
    RUCYCLIC2Zone
    RUOUTLETZone
    GVOUTLETZone
    DTINLETZone
    GVCYCLIC1Zone
    DTCYCLIC1Zone
    DTCYCLIC2Zone
);

patchConstrainedCoeffs
{
    method            metis;
    numberOfSubdomains    8;
    patchConstraints
    (
        (RUINLET 1)
        (GVOUTLET 1)
        (RUOUTLET 2)
        (DTINLET 2)
    );
}

simpleCoeffs
{
    n               (2 2 1);
    delta             0.001;
}

hierarchicalCoeffs
{
    n               (1 1 1);
    delta           0.001;
    order           xyz;
}

metisCoeffs
{
    processorWeights
    (
        1
        1
        1
        1
        1
        1
        1
        1
    );
}

manualCoeffs
{
    dataFile        "";
}

distributed     no;

roots
(
);


// ************************************************************************* //

