/*--------------------------------*- C++ -*----------------------------------*\
| =========                 |                                                 |
| \\      /  F ield         | foam-extend: Open Source CFD                    |
|  \\    /   O peration     | Version:     4.1                                |
|   \\  /    A nd           | Web:         http://www.foam-extend.org         |
|    \\/     M anipulation  |                                                 |
\*---------------------------------------------------------------------------*/
FoamFile
{
    version     2.0;
    format      ascii;
    class       polyBoundaryMesh;
    location    "constant/polyMesh";
    object      boundary;
}
// * * * * * * * * * * * * * * * * * * * * * * * * * * * * * * * * * * * * * //

6
(
    inlet
    {
        type            patch;
        nFaces          80;
        startFace       31936;
    }
    outlet
    {
        type            patch;
        nFaces          64;
        startFace       32016;
    }
    bottom
    {
        type            symmetryPlane;
        nFaces          48;
        startFace       32080;
    }
    top
    {
        type            symmetryPlane;
        nFaces          240;
        startFace       32128;
    }
    obstacle
    {
        type            patch;
        nFaces          208;
        startFace       32368;
    }
    defaultFaces
    {
        type            empty;
        nFaces          32256;
        startFace       32576;
    }
)


// ************************************************************************* //
