/*--------------------------------*- C++ -*----------------------------------*\
| =========                 |                                                 |
| \\      /  F ield         | OpenFOAM Extend Project: Open Source CFD        |
|  \\    /   O peration     | Version:  1.6-ext                               |
|   \\  /    A nd           | Web:      www.extend-project.de                 |
|    \\/     M anipulation  |                                                 |
\*---------------------------------------------------------------------------*/
FoamFile
{
    version     2.0;
    format      ascii;
    class       polyBoundaryMesh;
    location    "constant/polyMesh";
    object      boundary;
}
// * * * * * * * * * * * * * * * * * * * * * * * * * * * * * * * * * * * * * //

6
(
    inlet
    {
        type            patch;
        physicalType    supersonicInlet;
        nFaces          80;
        startFace       31936;
    }
    outlet
    {
        type            patch;
        physicalType    pressureTransmissiveOutlet;
        nFaces          64;
        startFace       32016;
    }
    bottom
    {
        type            symmetryPlane;
        physicalType    symmetryPlane;
        nFaces          48;
        startFace       32080;
    }
    top
    {
        type            symmetryPlane;
        physicalType    symmetryPlane;
        nFaces          240;
        startFace       32128;
    }
    obstacle
    {
        type            patch;
        physicalType    adiabaticWall;
        nFaces          208;
        startFace       32368;
    }
    defaultFaces
    {
        type            empty;
        nFaces          32256;
        startFace       32576;
    }
)

// ************************************************************************* //
