/*--------------------------------*- C++ -*----------------------------------*\
| =========                 |                                                 |
| \\      /  F ield         | OpenFOAM Extend Project: Open Source CFD        |
|  \\    /   O peration     | Version:  1.6-ext                               |
|   \\  /    A nd           | Web:      www.extend-project.de                 |
|    \\/     M anipulation  |                                                 |
\*---------------------------------------------------------------------------*/
FoamFile
{
    version     2.0;
    format      ascii;
    class       polyBoundaryMesh;
    location    "constant/polyMesh";
    object      boundary;
}
// * * * * * * * * * * * * * * * * * * * * * * * * * * * * * * * * * * * * * //

6
(
    left
    {
        type            symmetryPlane;
        physicalType    symmetryPlane;
        nFaces          30;
        startFace       1930;
    }
    right
    {
        type            patch;
        physicalType    traction;
        nFaces          30;
        startFace       1960;
    }
    down
    {
        type            symmetryPlane;
        physicalType    symmetryPlane;
        nFaces          30;
        startFace       1990;
    }
    up
    {
        type            patch;
        physicalType    traction;
        nFaces          30;
        startFace       2020;
    }
    hole
    {
        type            patch;
        physicalType    traction;
        nFaces          20;
        startFace       2050;
    }
    frontAndBack
    {
        type            empty;
        physicalType    empty;
        nFaces          2000;
        startFace       2070;
    }
)

// ************************************************************************* //
