/*--------------------------------*- C++ -*----------------------------------*\
| =========                 |                                                 |
| \\      /  F ield         | foam-extend: Open Source CFD                    |
|  \\    /   O peration     | Version:     3.2                                |
|   \\  /    A nd           | Web:         http://www.foam-extend.org         |
|    \\/     M anipulation  |                                                 |
\*---------------------------------------------------------------------------*/
FoamFile
{
    version     2.0;
    format      ascii;
    class       polyBoundaryMesh;
    location    "constant/polyMesh";
    object      boundary;
}
// * * * * * * * * * * * * * * * * * * * * * * * * * * * * * * * * * * * * * //

3
(
    lowValue
    {
        type            patch;
        nFaces          1;
        startFace       499;
    }
    highValue
    {
        type            patch;
        nFaces          1;
        startFace       500;
    }
    defaultFaces
    {
        type            empty;
        nFaces          2000;
        startFace       501;
    }
)

// ************************************************************************* //
