/*--------------------------------*- C++ -*----------------------------------*\
| =========                 |                                                 |
| \\      /  F ield         | OpenFOAM Extend Project: Open Source CFD        |
|  \\    /   O peration     | Version:  1.6-ext                               |
|   \\  /    A nd           | Web:      www.extend-project.de                 |
|    \\/     M anipulation  |                                                 |
\*---------------------------------------------------------------------------*/
FoamFile
{
    version     2.0;
    format      ascii;
    class       polyBoundaryMesh;
    location    "constant/polyMesh";
    object      boundary;
}
// * * * * * * * * * * * * * * * * * * * * * * * * * * * * * * * * * * * * * //

3
(
    lowValue
    {
        type            patch;
        nFaces          1;
        startFace       499;
    }
    highValue
    {
        type            patch;
        nFaces          1;
        startFace       500;
    }
    defaultFaces
    {
        type            empty;
        nFaces          2000;
        startFace       501;
    }
)

// ************************************************************************* //
