/*--------------------------------*- C++ -*----------------------------------*\
| =========                 |                                                 |
| \\      /  F ield         | OpenFOAM Extend Project: Open Source CFD        |
|  \\    /   O peration     | Version:  1.6-ext                               |
|   \\  /    A nd           | Web:      www.extend-project.de                 |
|    \\/     M anipulation  |                                                 |
\*---------------------------------------------------------------------------*/
FoamFile
{
    version     2.0;
    format      ascii;
    class       dictionary;
    object      dynamicMeshDict;
}
// * * * * * * * * * * * * * * * * * * * * * * * * * * * * * * * * * * * * * //

dynamicFvMesh dynamicMotionSolverFvMesh;

twoDMotion yes;

solver laplaceFaceDecomposition;

diffusivity uniform 1.0;

distancePatches 1 (movingPatch);

frozenDiffusion     yes;

pseudoSolid
{
    poissonsRatio           0.3;
    nCorrectors             3;
    convergenceTolerance    1e-9;
};

// ************************************************************************* //
