/*--------------------------------*- C++ -*----------------------------------*\
| =========                 |                                                 |
| \\      /  F ield         | foam-extend: Open Source CFD                    |
|  \\    /   O peration     | Version:     3.2                                |
|   \\  /    A nd           | Web:         http://www.foam-extend.org         |
|    \\/     M anipulation  |                                                 |
\*---------------------------------------------------------------------------*/
FoamFile
{
    version     2.0;
    format      ascii;
    class       dictionary;
    object      contactProperties;
}
// * * * * * * * * * * * * * * * * * * * * * * * * * * * * * * * * * * * * * //

// Contact relaxation factors
urfTraction            0.2;
urfValue               0.2;
urfFraction            0.2;

contacts
1
(
    c1
    {
        masterPatch    bottomBrickUp;
        slavePatch     topBrickDown;
        frictionCoeff  mu [0 0 0 0 0 0 0] 0.15;
        contactTol     5e-6;
        projectionDir  contactSphere;
        projectionAlgo visible;
    }
);

// ************************************************************************* //
