/*--------------------------------*- C++ -*----------------------------------*\
| =========                 |                                                 |
| \\      /  F ield         | foam-extend: Open Source CFD                    |
|  \\    /   O peration     | Version:     4.1                                |
|   \\  /    A nd           | Web:         http://www.foam-extend.org         |
|    \\/     M anipulation  |                                                 |
\*---------------------------------------------------------------------------*/
FoamFile
{
    version     2.0;
    format      ascii;
    class       polyBoundaryMesh;
    location    "constant/polyMesh";
    object      boundary;
}
// * * * * * * * * * * * * * * * * * * * * * * * * * * * * * * * * * * * * * //

6
(
    left
    {
        type            symmetryPlane;
        physicalType    symmetryPlane;
        nFaces          35;
        startFace       2815;
    }
    right
    {
        type            patch;
        physicalType    tractionAdiabatic;
        nFaces          35;
        startFace       2850;
    }
    down
    {
        type            symmetryPlane;
        physicalType    symmetryPlane;
        nFaces          35;
        startFace       2885;
    }
    up
    {
        type            patch;
        physicalType    tractionAdiabatic;
        nFaces          35;
        startFace       2920;
    }
    hole
    {
        type            patch;
        physicalType    tractionAdiabatic;
        nFaces          30;
        startFace       2955;
    }
    frontAndBack
    {
        type            empty;
        physicalType    empty;
        nFaces          2900;
        startFace       2985;
    }
)


// ************************************************************************* //
