/*--------------------------------*- C++ -*----------------------------------*\
| =========                 |                                                 |
| \\      /  F ield         | foam-extend: Open Source CFD                    |
|  \\    /   O peration     | Version:     4.1                                |
|   \\  /    A nd           | Web:         http://www.foam-extend.org         |
|    \\/     M anipulation  |                                                 |
\*---------------------------------------------------------------------------*/
FoamFile
{
    version     2.0;
    format      ascii;
    class       dictionary;
    object      fvSchemes;
}
// * * * * * * * * * * * * * * * * * * * * * * * * * * * * * * * * * * * * * //

ddtSchemes
{
    default none;
    // ddt(T)  Euler;
    ddt(T)  boundedBackward;
}

gradSchemes
{
    default         cellLimited Gauss linear 1;
}

divSchemes
{
    default         none;
    // div(phi,T)      Gauss upwind;
    div(phi,T)      Gauss vanLeer01;
}

laplacianSchemes
{
    default         Gauss linear limited 0.5;
}

interpolationSchemes
{
    default         linear;
}

snGradSchemes
{
    default         limited 0.5;
}


// ************************************************************************* //
