/*--------------------------------*- C++ -*----------------------------------*\
| =========                 |                                                 |
| \\      /  F ield         | OpenFOAM: The Open Source CFD Toolbox           |
|  \\    /   O peration     | Version:  1.3                                   |
|   \\  /    A nd           | Web:      http://www.openfoam.org               |
|    \\/     M anipulation  |                                                 |
\*---------------------------------------------------------------------------*/

FoamFile
{
    version         2.0;
    format          ascii;
    class           dictionary;
    object          blockMeshDict;
}

// * * * * * * * * * * * * * * * * * * * * * * * * * * * * * * * * * * * * * //

convertToMeters 1;

vertices
(
    (0 0 -0.1)
    (0.05 0 -0.1)
    (0.05 0.6 -0.1)
    (0 0.6 -0.1)
    (0 0 0.1)
    (0.05 0 0.1)
    (0.05 0.6 0.1)
    (0 0.6 0.1)
);

blocks
(
    hex (0 1 2 3 4 5 6 7) (10 45 1) simpleGrading (1 1 1)
);

edges           
(
);

patches
(
    patch consoleSolid
    (
        (3 7 6 2)
        (0 4 7 3)
        (2 6 5 1)
    )
    patch consoleFixed
    (
        (1 5 4 0)
    )
    empty frontAndBackPlanes
    (
        (0 3 2 1)
        (4 5 6 7)
    )
);


mergePatchPairs
(
);

// ************************************************************************* //
