/*--------------------------------*- C++ -*----------------------------------*\
| =========                 |                                                 |
| \\      /  F ield         | foam-extend: Open Source CFD                    |
|  \\    /   O peration     | Version:     4.0                                |
|   \\  /    A nd           | Web:         http://www.foam-extend.org         |
|    \\/     M anipulation  |                                                 |
\*---------------------------------------------------------------------------*/
FoamFile
{
    version     2.0;
    format      ascii;
    class       polyBoundaryMesh;
    location    "constant/polyMesh";
    object      boundary;
}
// * * * * * * * * * * * * * * * * * * * * * * * * * * * * * * * * * * * * * //

3
(
    loadedEnd
    {
        type            wall;
        nFaces          100;
        startFace       27900;
    }
    freeSurface
    {
        type            wall;
        nFaces          4000;
        startFace       28000;
    }
    fixedEnd
    {
        type            wall;
        nFaces          100;
        startFace       32000;
    }
)


// ************************************************************************* //
