/*--------------------------------*- C++ -*----------------------------------*\
| =========                 |                                                 |
| \\      /  F ield         | foam-extend: Open Source CFD                    |
|  \\    /   O peration     | Version:     3.2                                |
|   \\  /    A nd           | Web:         http://www.foam-extend.org         |
|    \\/     M anipulation  |                                                 |
\*---------------------------------------------------------------------------*/
FoamFile
{
    version     2.0;
    format      ascii;
    class       dictionary;
    object      blockMeshDict;
}
// * * * * * * * * * * * * * * * * * * * * * * * * * * * * * * * * * * * * * //

convertToMeters 0.1;

vertices
(
    (1 0 0)
    (2 0 0)
    (2 1 0)
    (1 1 0)
    (1 0 0.1)
    (2 0 0.1)
    (2 1 0.1)
    (1 1 0.1)
);

blocks
(
    hex (0 1 2 3 4 5 6 7) (10 10 1) simpleGrading (1 1 1)
);

edges
(
);

boundary
(
    topAndBottom
    {
        type patch;
        faces
        (
            (3 7 6 2)
            (1 5 4 0)
        );
    }

    left
    {
        type regionCouple;

        shadowRegion    region0;
        shadowPatch     right;
        attached        off;
        isWall          on;
        zone            leftZone;
        master          off;
        bridgeOverlap   off;

        faces
        (
            (0 4 7 3)
        );
    }

    right
    {
        type patch;
        faces
        (
            (2 6 5 1)
        );
    }

    frontAndBack
    {
        type empty;
        faces
        (
            (0 3 2 1)
            (4 5 6 7)
        );
    }
);

mergePatchPairs
(
);

// ************************************************************************* //
