/*--------------------------------*- C++ -*----------------------------------*\
| =========                 |                                                 |
| \\      /  F ield         | OpenFOAM Extend Project: Open source CFD        |
|  \\    /   O peration     | Version:  1.6-ext                               |
|   \\  /    A nd           | Web:      www.extend-project.de                 |
|    \\/     M anipulation  |                                                 |
\*---------------------------------------------------------------------------*/
FoamFile
{
    version     2.0;
    format      ascii;
    class       dictionary;
    location    "constant/faMesh";
    object      faMeshDefinition;
}
// * * * * * * * * * * * * * * * * * * * * * * * * * * * * * * * * * * * * * //

polyMeshPatches  1( film );

boundary
{
    left
    {
        type                patch;
        ownerPolyPatch      film;
        neighbourPolyPatch  left;
    }

    right
    {
        type                patch;
        ownerPolyPatch      film;
        neighbourPolyPatch  right;
    }

    front
    {
        type                patch;
        ownerPolyPatch      film;
        neighbourPolyPatch  front;
    }

    back
    {
        type                patch;
        ownerPolyPatch      film;
        neighbourPolyPatch  back;
    }
}


// ************************************************************************** //
