/*--------------------------------*- C++ -*----------------------------------*\
| =========                 |                                                 |
| \\      /  F ield         | OpenFOAM: The Open Source CFD Toolbox           |
|  \\    /   O peration     | Version:  1.5                                   |
|   \\  /    A nd           | Web:      http://www.OpenFOAM.org               |
|    \\/     M anipulation  |                                                 |
\*---------------------------------------------------------------------------*/
FoamFile
{
    version     2.0;
    format      ascii;
    class       dictionary;
    object      molConfigDict;
}
// * * * * * * * * * * * * * * * * * * * * * * * * * * * * * * * * * * * * * //

// Euler angles, expressed in degrees as phi, theta, psi,
// see http://mathworld.wolfram.com/EulerAngles.html

liquid
{
    massDensity             1220.0;
    temperature             300.0;
    velocityDistribution    maxwellian;
    bulkVelocity            (0.0 0.0 0.0);
    id                      Ar;
    mass                    6.63352033e-26;
    latticeStructure        SC;
    anchor                  (0.0 0.0 0.0);
    anchorSpecifies         molecule;
    tethered                no;
    orientationAngles       (0 0 0);
}

// ************************************************************************* //
