/*--------------------------------*- C++ -*----------------------------------*\
| =========                 |                                                 |
| \\      /  F ield         | foam-extend: Open Source CFD                    |
|  \\    /   O peration     | Version:     4.1                                |
|   \\  /    A nd           | Web:         http://www.foam-extend.org         |
|    \\/     M anipulation  |                                                 |
\*---------------------------------------------------------------------------*/
FoamFile
{
    version     2.0;
    format      ascii;
    class       dictionary;
    location    "system";
    object      fvSolution;
}
// * * * * * * * * * * * * * * * * * * * * * * * * * * * * * * * * * * * * * //

solvers
{
    rho
    {}

    p
    {
        solver          BiCGStab;
        preconditioner  DILU;

        minIter         1;
        tolerance       1e-07;
        relTol          0;
    }

    U
    {
        solver          BiCGStab;
        preconditioner  DILU;
        tolerance       1e-07;
        relTol          0;
    }

    e
    {
        solver          BiCGStab;
        preconditioner  DILU;
        tolerance       1e-07;
        relTol          0;
    }

    k
    {
        solver          BiCGStab;
        preconditioner  DILU;
        tolerance       1e-08;
        relTol          0;
    }

    epsilon
    {
        solver          BiCGStab;
        preconditioner  DILU;
        tolerance       1e-08;
        relTol          0;
    }

    R
    {
        solver          BiCGStab;
        preconditioner  DILU;
        tolerance       1e-08;
        relTol          0;
    }
}

SIMPLE
{
    nNonOrthogonalCorrectors 2;
}

PIMPLE
{
    nOuterCorrectors 2;
    nCorrectors      2;
    nNonOrthogonalCorrectors 0;
}

relaxationFactors
{
    U       0.8;
    UFinal  1;
    p       0.8;
    e       0.8;
    eFinal  1;
}


// ************************************************************************* //
