/*---------------------------------------------------------------------------*\
| =========                 |                                                 |
| \\      /  F ield         | OpenFOAM: The Open Source CFD Toolbox           |
|  \\    /   O peration     | Version:  1.4                                   |
|   \\  /    A nd           | Web:      http://www.openfoam.org               |
|    \\/     M anipulation  |                                                 |
\*---------------------------------------------------------------------------*/

FoamFile
{
    version         2.0;
    format          ascii;

    root            "";
    case            "";
    instance        "";
    local           "";

    class           volScalarField;
    object          rho;
}

// * * * * * * * * * * * * * * * * * * * * * * * * * * * * * * * * * * * * * //

dimensions          [1 -3 0 0 0 0 0];

internalField       uniform 1000;

boundaryField
{
    in
    {
        type            zeroGradient;   
    }
    out
    {
        type            zeroGradient;  
    }
    bottom
    {
        type            symmetryPlane;
    }
    topWall
    {
        type            zeroGradient;
    }
    defaultFaces
    {
        type            empty;
    }
}



// ************************************************************************** //
