/*--------------------------------*- C++ -*----------------------------------*\
| =========                 |                                                 |
| \\      /  F ield         | foam-extend: Open Source CFD                    |
|  \\    /   O peration     | Version:     4.0                                |
|   \\  /    A nd           | Web:         http://www.foam-extend.org         |
|    \\/     M anipulation  |                                                 |
\*---------------------------------------------------------------------------*/
FoamFile
{
    version     2.0;
    format      ascii;
    class       dictionary;
    object      postProcessingDict;
}
// * * * * * * * * * * * * * * * * * * * * * * * * * * * * * * * * * * * * * //

functions
{
    turbulenceFields1
    {
        type            turbulenceFields;
        functionObjectLibs ("libutilityFunctionObjects.so");
        enabled         true;
        outputControl   timeStep;
        outputInterval  1;

        fields
        (
            R
        );
    }
}


// ************************************************************************* //
