/*--------------------------------*- C++ -*----------------------------------*\
| =========                 |                                                 |
| \\      /  F ield         | OpenFOAM Extend Project: Open Source CFD        |
|  \\    /   O peration     | Version:  1.6-ext                               |
|   \\  /    A nd           | Web:      www.extend-project.de                 |
|    \\/     M anipulation  |                                                 |
\*---------------------------------------------------------------------------*/
FoamFile
{
    version     2.0;
    format      ascii;
    class       dictionary;
    object      kineticTheoryProperties;
}
// * * * * * * * * * * * * * * * * * * * * * * * * * * * * * * * * * * * * * //

kineticTheory          on;

equilibrium            on;

e                      e                  [ 0 0 0 0 0 0 0 ] 0.8 ;

alphaMax               alphaMax           [ 0 0 0 0 0 0 0 ] 0.62 ;

alphaMinFriction       alphaMinFriction   [ 0 0 0 0 0 0 0 ] 0.65 ;

Fr                     Fr                 [ 1 -1 -2 0 0 0 0 ] 0.05 ;

eta                    eta                [ 0 0 0 0 0 0 0 ] 2.0 ;

p                      p                  [ 0 0 0 0 0 0 0 ] 5.0 ;

phi                    phi                [ 0 0 0 0 0 0 0 ] 0.0 ;

viscosityModel         Gidaspow;

conductivityModel      Gidaspow;

granularPressureModel  Lun;

frictionalStressModel  JohnsonJackson;

radialModel            Gidaspow;

HrenyaSinclairCoeffs
{
        L              L                   [ 0 1 0 0 0 0 0 ] 5.0e-4 ;
}

// ************************************************************************* //
