/*--------------------------------*- C++ -*----------------------------------*\
| =========                 |                                                 |
| \\      /  F ield         | OpenFOAM Extend Project: Open Source CFD        |
|  \\    /   O peration     | Version:  1.6-ext                               |
|   \\  /    A nd           | Web:      www.extend-project.de                 |
|    \\/     M anipulation  |                                                 |
\*---------------------------------------------------------------------------*/
FoamFile
{
    version     2.0;
    format      ascii;
    class       dictionary;
    object      transportProperties;
}
// * * * * * * * * * * * * * * * * * * * * * * * * * * * * * * * * * * * * * //

// a is the discrete phase and
// b is the continuous phase

// sand
phasea
{
        rho                     rho                     [1 -3 0 0 0]            2500;
        nu                      nu                      [0 2 -1 0 0]            1.0e-6;
        d                       d                       [0 1 0 0 0 0 0]         300.0e-6;
}

// air
phaseb
{
        rho                     rho                     [1 -3 0 0 0]            1.2;
        nu                      nu                      [0 2 -1 0 0]            1.5e-5;
        d                       d                       [0 1 0 0 0 0 0]         1.0;
}

Cvm                      Cvm                [0 0 0 0 0]   0.0;
Cl                       Cl                 [0 0 0 0 0]   0.0;
Ct                       Ct                 [0 0 0 0 0]   0.0;
alphaAlpha               alphaAlpha         [0 0 0 0 0]   0.0;

// ************************************************************************* //
