/*--------------------------------*- C++ -*----------------------------------*\
| =========                 |                                                 |
| \\      /  F ield         | foam-extend: Open Source CFD                    |
|  \\    /   O peration     | Version:     3.2                                |
|   \\  /    A nd           | Web:         http://www.foam-extend.org         |
|    \\/     M anipulation  | For copyright notice see file Copyright         |
\*---------------------------------------------------------------------------*/
FoamFile
{
    version     2.0;
    format      ascii;
    class       dictionary;
    object      blockMeshDict;
}
// * * * * * * * * * * * * * * * * * * * * * * * * * * * * * * * * * * * * * //

convertToMeters 0.1;

vertices
(
    (0 0 0)
    (10 0 0)
    (10 5 0)
    (0 5 0)

    (0  0 1)
    (10 0 1)
    (10 5 1)
    (0 5 1)
);

blocks
(
    hex (0 1 2 3 4 5 6 7) left (10 5 1) simpleGrading (1 1 1)
);

edges
(
);

patches
(
    patch left
    (
        (0 4 7 3)
    )
    patch right
    (
        (2 6 5 1)
    )
    wall top
    (
        (3 7 6 2)
    )
    wall bottom
    (
        (1 5 4 0)
    )
    empty frontAndBack
    (
        (0 3 2 1)
        (4 5 6 7)
    )
);

mergePatchPairs
(
);

// ************************************************************************* //
