/*--------------------------------*- C++ -*----------------------------------*\
| =========                 |                                                 |
| \\      /  F ield         | foam-extend: Open Source CFD                    |
|  \\    /   O peration     | Version:     3.0                                |
|   \\  /    A nd           | Web:         http://www.extend-project.de       |
|    \\/     M anipulation  |                                                 |
\*---------------------------------------------------------------------------*/
FoamFile
{
    version     2.0;
    format      ascii;
    class       dictionary;
    object      fvSchemes;
}
// * * * * * * * * * * * * * * * * * * * * * * * * * * * * * * * * * * * * * //

ddtSchemes
{
    default backward;
}

gradSchemes
{
    default leastSquares;
}

divSchemes
{
    default none;
    div(phi,U)   Gauss skewCorrected linear;
//    div(phi,U) Gauss linearUpwind cellLimited leastSquares 1;
}

laplacianSchemes
{
    default none;
    laplacian(nu,U) Gauss linear skewCorrected 1;
    laplacian((1|A(U)),p) Gauss linear skewCorrected 1;
    laplacian(diffusivity,cellMotionU) Gauss linear skewCorrected 1;
}

interpolationSchemes
{
    default linear;
    interpolate(U) skewCorrected linear;
}

snGradSchemes
{
    default skewCorrected 1;
}

fluxRequired
{
    default         no;
    p;
}


// ************************************************************************* //
