/*--------------------------------*- C++ -*----------------------------------*\
| =========                 |                                                 |
| \\      /  F ield         | OpenFOAM Extend Project: Open Source CFD        |
|  \\    /   O peration     | Version:  1.6-ext                               |
|   \\  /    A nd           | Web:      www.extend-project.de                 |
|    \\/     M anipulation  |                                                 |
\*---------------------------------------------------------------------------*/
FoamFile
{
    version     2.0;
    format      ascii;
    class       volScalarField;
    location    "0";
    object      T;
}
// * * * * * * * * * * * * * * * * * * * * * * * * * * * * * * * * * * * * * //

dimensions      [0 0 0 1 0 0 0];

internalField   uniform 0;

boundaryField
{
    left
    {
        type            symmetryPlane;
    }
    bottom
    {
        type            symmetryPlane;
    }
     
    inside
    {
      type fixedValue;
      value uniform 100;
    }

    outside
    {
      type fixedValue;
      value uniform 0;
    }

    front
    {
      //type            empty;
        type            symmetryPlane;
    }

    back
    {
      //type            empty;
        type            symmetryPlane;
    }
}

// ************************************************************************* //
