/*--------------------------------*- C++ -*----------------------------------*\
| =========                 |                                                 |
| \\      /  F ield         | OpenFOAM Extend Project: Open Source CFD        |
|  \\    /   O peration     | Version:  1.6-ext                               |
|   \\  /    A nd           | Web:      www.extend-project.de                 |
|    \\/     M anipulation  |                                                 |
\*---------------------------------------------------------------------------*/
FoamFile
{
    version     2.0;
    format      ascii;
    class       dictionary;
    object      blockMeshDict;
}
// * * * * * * * * * * * * * * * * * * * * * * * * * * * * * * * * * * * * * //

convertToMeters 2.462491658e-9;

vertices
(
    (-1 -1 -1)
    (1 -1 -1)
    (1 1 -1)
    (-1 1 -1)
    (-1 -1 1)
    (1 -1 1)
    (1 1 1)
    (-1 1 1)
);

blocks
(
    hex (0 1 2 3 4 5 6 7) liquid (12 12 12) simpleGrading (1 1 1)
);

patches
(
    cyclic
    periodicX
    (
        (1 2 6 5)
        (0 4 7 3)
    )

    cyclic
    periodicY
    (
        (2 3 7 6)
        (0 1 5 4)
    )

    cyclic
    periodicZ
    (
        (0 3 2 1)
        (4 5 6 7)
    )
)

mergePatchPairs
(
);

// ************************************************************************* //
