/*--------------------------------*- C++ -*----------------------------------*\
| =========                 |                                                 |
| \\      /  F ield         | foam-extend: Open Source CFD                    |
|  \\    /   O peration     | Version:     4.1                                |
|   \\  /    A nd           | Web:         http://www.foam-extend.org         |
|    \\/     M anipulation  |                                                 |
\*---------------------------------------------------------------------------*/
FoamFile
{
    version     2.0;
    format      ascii;
    class       dictionary;
    object      decomposeParDict;
}
// * * * * * * * * * * * * * * * * * * * * * * * * * * * * * * * * * * * * * //

numberOfSubdomains 12;

globalFaceZones
(
    sideWallA_BB_cyclic1Zone
    sideWallA_BB_cyclic2Zone
    B_UPSTREAMZone
    B_DOWNSTREAMZone
);

method          metis;

manualCoeffs
{
    dataFile        "";
}

distributed     no;

roots
(
);


// ************************************************************************* //

