/*--------------------------------*- C++ -*----------------------------------*\
| =========                 |                                                 |
| \\      /  F ield         | OpenFOAM Extend Project: Open Source CFD        |
|  \\    /   O peration     | Version:  1.6-ext                               |
|   \\  /    A nd           | Web:      www.extend-project.de                 |
|    \\/     M anipulation  |                                                 |
\*---------------------------------------------------------------------------*/
FoamFile
{
    version     2.0;
    format      ascii;
    class       dictionary;
    object      fvSolution;
}
// * * * * * * * * * * * * * * * * * * * * * * * * * * * * * * * * * * * * * //

solvers
{
    p PCG
    {
        preconditioner   DIC;
        tolerance        1e-07;
        relTol           0;
    };
    U PBiCG
    {
        preconditioner   DILU;
        tolerance        1e-07;
        relTol           0;
    };
    k PBiCG
    {
        preconditioner   DILU;
        tolerance        1e-07;
        relTol           0;
    };
    epsilon PBiCG
    {
        preconditioner   DILU;
        tolerance        1e-07;
        relTol           0;
    };
    rho PCG
    {
        preconditioner   DIC;
        tolerance        1e-07;
        relTol           0;
    };
    Alpha PBiCG
    {
        preconditioner   DILU;
        tolerance        1e-07;
        relTol           0;
    };
}

PISO
{
    nCorrectors     2;
    nNonOrthogonalCorrectors 0;
}

// ************************************************************************* //
