/*--------------------------------*- C++ -*----------------------------------*\
| =========                 |                                                 |
| \\      /  F ield         | OpenFOAM Extend Project: Open Source CFD        |
|  \\    /   O peration     | Version:  1.6-ext                               |
|   \\  /    A nd           | Web:      www.extend-project.de                 |
|    \\/     M anipulation  |                                                 |
\*---------------------------------------------------------------------------*/
FoamFile
{
    version     2.0;
    format      ascii;
    class       volScalarField;
    object      rho;
}
// * * * * * * * * * * * * * * * * * * * * * * * * * * * * * * * * * * * * * //

dimensions      [1 -3 0 0 0];

internalField   uniform 845;

boundaryField
{
    inlet
    {
        type            fixedValue;
        value           uniform 845;
    }

    outlet
    {
        type            fixedValue;
        value           uniform 835;
    }

    walls
    {
        type            zeroGradient;
    }

    frontBack
    {
        type            empty;
    }
}

// ************************************************************************* //
