/*--------------------------------*- C++ -*----------------------------------*\
| =========                 |                                                 |
| \\      /  F ield         | OpenFOAM Extend Project: Open Source CFD        |
|  \\    /   O peration     | Version:  1.6-ext                               |
|   \\  /    A nd           | Web:      www.extend-project.de                 |
|    \\/     M anipulation  |                                                 |
\*---------------------------------------------------------------------------*/
FoamFile
{
    version     2.0;
    format      ascii;
    class       polyBoundaryMesh;
    location    "constant/polyMesh";
    object      boundary;
}
// * * * * * * * * * * * * * * * * * * * * * * * * * * * * * * * * * * * * * //

3
(
    floor
    {
        type            wall;
        nFaces          400;
        startFace       11200;
    }
    ceiling
    {
        type            wall;
        nFaces          400;
        startFace       11600;
    }
    fixedWalls
    {
        type            wall;
        nFaces          800;
        startFace       12000;
    }
)

// ************************************************************************* //
