/*--------------------------------*- C++ -*----------------------------------*\
| =========                 |                                                 |
| \\      /  F ield         | OpenFOAM Extend Project: Open Source CFD        |
|  \\    /   O peration     | Version:  1.6-ext                               |
|   \\  /    A nd           | Web:      www.extend-project.de                 |
|    \\/     M anipulation  |                                                 |
\*---------------------------------------------------------------------------*/
FoamFile
{
    version     2.0;
    format      ascii;
    class       dictionary;
    location    "system";
    object      fvSchemes;
}
// * * * * * * * * * * * * * * * * * * * * * * * * * * * * * * * * * * * * * //

d2dt2Schemes
{
    default     steadyState;
}

ddtSchemes
{
    default     steadyState;
}

gradSchemes
{
    default         none;
    grad(U)         extendedLeastSquares 0;
    snGradCorr(U)   extendedLeastSquares 0;
    grad(T)         extendedLeastSquares 0;
    grad(threeKalphaDeltaT) extendedLeastSquares 0;
}

divSchemes
{
    default                none;
    div(sigma)             Gauss linear;
    div(threeKalphaDeltaT) Gauss linear;
}

laplacianSchemes
{
    default         none;
    laplacian(DU,U) Gauss linear corrected;
    laplacian(k,T)  Gauss linear corrected;
}

snGradSchemes
{
    snGrad(U)       corrected;
}

interpolationSchemes
{
    default                  linear;
}

// ************************************************************************* //
