/*--------------------------------*- C++ -*----------------------------------*\
| =========                 |                                                 |
| \\      /  F ield         | foam-extend: Open Source CFD                    |
|  \\    /   O peration     | Version:     4.0                                |
|   \\  /    A nd           | Web:         http://www.foam-extend.org         |
|    \\/     M anipulation  |                                                 |
\*---------------------------------------------------------------------------*/
FoamFile
{
    version     2.0;
    format      ascii;
    class       dictionary;
    object      solidProperties;
}
// * * * * * * * * * * * * * * * * * * * * * * * * * * * * * * * * * * * * * //

solidSolver unsTotalLagrangianSolid;

unsTotalLagrangianSolidCoeffs
{
    nCorrectors 1000;

    convergenceTolerance 1e-7;
    relConvergenceTolerance 0;

    nonLinear totalLagrangian;
    debug no;

    // K K [0 0 -1 0 0 0 0] 0;
}

// ************************************************************************* //
