/*--------------------------------*- C++ -*----------------------------------*\
| =========                 |                                                 |
| \\      /  F ield         | foam-extend: Open Source CFD                    |
|  \\    /   O peration     | Version:     3.2                                |
|   \\  /    A nd           | Web:         http://www.foam-extend.org         |
|    \\/     M anipulation  |                                                 |
\*---------------------------------------------------------------------------*/
FoamFile
{
    version     2.0;
    format      ascii;
    class       dictionary;
    location    "system";
    object      fvSolution;
}
// * * * * * * * * * * * * * * * * * * * * * * * * * * * * * * * * * * * * * //

solvers
{
    U
    {
        solver          PCG;
        preconditioner  DIC;
        tolerance       1e-07;
        relTol          0.1;
    }
}

solidMechanics
{
    nCorrectors           10000;
    U                     1e-06;
    //divSigmaExp           standard;
    divSigmaExp           surface;
    //divSigmaExp           decompose;
    //divSigmaExp           laplacian;
    historyPatch          topBrickUp;
    solidInterfaceMethod  none;
    predictor             yes;
    infoFrequency         100;
    aitkenRelaxation      yes;
}

relaxationFactors
{
  //U   0.9;
}
// ************************************************************************* //
