/*--------------------------------*- C++ -*----------------------------------*\
| =========                 |                                                 |
| \\      /  F ield         | foam-extend: Open Source CFD                    |
|  \\    /   O peration     | Version:     3.2                                |
|   \\  /    A nd           | Web:         http://www.foam-extend.org         |
|    \\/     M anipulation  |                                                 |
\*---------------------------------------------------------------------------*/
FoamFile
{
    version     2.0;
    format      ascii;
    class       dictionary;
    object      fvSolution;
}
// * * * * * * * * * * * * * * * * * * * * * * * * * * * * * * * * * * * * * //

solvers
{
    D GAMG
    {
        tolerance        1e-06;
        relTol           0.99;

        smoother         GaussSeidel;

        cacheAgglomeration true;

        nCellsInCoarsestLevel 6;

        agglomerator     faceAreaPair;
        mergeLevels      1;
    };

    Dcorr GAMG
    {
        tolerance        1e-06;
        relTol           0.99;

        smoother         GaussSeidel;

        cacheAgglomeration true;

        nCellsInCoarsestLevel 6;

        agglomerator     faceAreaPair;
        mergeLevels      1;
    };
}

stressAnalysis
{
    nCorrectors        1;
    D                  1e-10;
    accelerationFactor 2;
}

// ************************************************************************* //
