/*--------------------------------*- C++ -*----------------------------------*\
| =========                 |                                                 |
| \\      /  F ield         | OpenFOAM Extend Project: Open Source CFD        |
|  \\    /   O peration     | Version:  1.6-ext                               |
|   \\  /    A nd           | Web:      www.extend-project.de                 |
|    \\/     M anipulation  |                                                 |
\*---------------------------------------------------------------------------*/
FoamFile
{
    version     2.0;
    format      ascii;
    class       dictionary;
    object      fvSolution;
}
// * * * * * * * * * * * * * * * * * * * * * * * * * * * * * * * * * * * * * //

solvers
{
    D GAMG
    {
        tolerance        1e-06;
        relTol           0.9;

        smoother         GaussSeidel;

        cacheAgglomeration true;

        nCellsInCoarsestLevel 20;

        agglomerator     faceAreaPair;
        mergeLevels      1;
    };

    T GAMG
    {
        tolerance        1e-06;
        relTol           0.9;

        smoother         GaussSeidel;

        cacheAgglomeration true;

        nCellsInCoarsestLevel 20;

        agglomerator     faceAreaPair;
        mergeLevels      1;
    };
}

stressAnalysis
{
    compactNormalStress yes;
    nCorrectors     1;
    D               1e-06;
}

// ************************************************************************* //
