/*--------------------------------*- C++ -*----------------------------------*\
| =========                 |                                                 |
| \\      /  F ield         | OpenFOAM: The Open Source CFD Toolbox           |
|  \\    /   O peration     | Version:  1.3                                   |
|   \\  /    A nd           | Web:      http://www.openfoam.org               |
|    \\/     M anipulation  |                                                 |
\*---------------------------------------------------------------------------*/

FoamFile
{
    version         2.0;
    format          ascii;
    class           volVectorField;
    object          U;
}

// * * * * * * * * * * * * * * * * * * * * * * * * * * * * * * * * * * * * * //


dimensions      [0 1 0 0 0 0 0];

internalField   uniform (0 0 0);

boundaryField
{

consoleSolid
{
    type            tractionDisplacement;
    traction        uniform (0 0 0);
    pressure        uniform 0;
    value           uniform (0 0 0);
}

consoleFixed
{
    type    fixedValue;
    value uniform (0 0 0);
}

frontAndBackPlanes
{
    type empty;
}

}


// ************************************************************************* //
