/*--------------------------------*- C++ -*----------------------------------*\
| =========                 |                                                 |
| \\      /  F ield         | OpenFOAM: The Open Source CFD Toolbox           |
|  \\    /   O peration     | Version:  1.4                                   |
|   \\  /    A nd           | Web:      http://www.openfoam.org               |
|    \\/     M anipulation  |                                                 |
\*---------------------------------------------------------------------------*/

FoamFile
{
    version         2.0;
    format          ascii;

    root            "";
    case            "";
    instance        "";
    local           "";

    class           dictionary;
    object          motionProperties;
}

// * * * * * * * * * * * * * * * * * * * * * * * * * * * * * * * * * * * * * //

dynamicFvMesh solidBodyMotionFvMesh;

solidBodyMotionFvMeshCoeffs
{
    solidBodyMotionFunction SKA;

    SKACoeffs
    {
        // Centre of gravity
        CofG        (0 0 0);

        // Time data file name
        timeDataFileName "constant/6DoF.dat";
    }
}


// ************************************************************************* //
