/*--------------------------------*- C++ -*----------------------------------*\
| =========                 |                                                 |
| \\      /  F ield         | OpenFOAM: The Open Source CFD Toolbox           |
|  \\    /   O peration     | Version:  2.1.1                                 |
|   \\  /    A nd           | Web:      www.OpenFOAM.org                      |
|    \\/     M anipulation  |                                                 |
\*---------------------------------------------------------------------------*/
FoamFile
{
    version     2.0;
    format      ascii;
    class       volScalarField;
    location    "0";
    object      k;
}
// * * * * * * * * * * * * * * * * * * * * * * * * * * * * * * * * * * * * * //

dimensions      [0 2 -2 0 0 0 0];

internalField   uniform 5;

boundaryField
{
    upperWall
    {
        type            compressible::kqRWallFunction;
        value           uniform 5;
    }
    lowerWall
    {
        type            compressible::kqRWallFunction;
        value           uniform 5;
    }
    inlet
    {
        type            turbulentIntensityKineticEnergyInlet;
        intensity       0.01;
        U               U;
        phi             phi;
        value           uniform 5;
    }
    outlet
    {
        type            zeroGradient;
    }
    frontAndBack
    {
        type            empty;
    }
}


// ************************************************************************* //
