/*--------------------------------*- C++ -*----------------------------------*\
| =========                 |                                                 |
| \\      /  F ield         | foam-extend: Open Source CFD                    |
|  \\    /   O peration     | Version:     4.0                                |
|   \\  /    A nd           | Web:         http://www.foam-extend.org         |
|    \\/     M anipulation  |                                                 |
\*---------------------------------------------------------------------------*/
FoamFile
{
    version     2.0;
    format      ascii;
    class       volVectorField;
    object      D;
}
// * * * * * * * * * * * * * * * * * * * * * * * * * * * * * * * * * * * * * //

dimensions      [0 1 0 0 0 0 0];

internalField   uniform (0 0 0);

boundaryField
{
    loadedEnd
    {
        type            tractionDisplacement;
        traction        uniform ( 10000 10000 10000 );
        pressure        uniform 0;
        value           uniform (0 0 0);
//         secondOrder yes;
    }
    freeSurface
    {
        type            tractionDisplacement;
        traction        uniform ( 0 0 0 );
        pressure        uniform 0;
        value           uniform (0 0 0);
//         secondOrder yes;
    }
    fixedEnd
    {
        type fixedDisplacement;
        value uniform (0 0 0);
    }
}


// ************************************************************************* //
