/*--------------------------------*- C++ -*----------------------------------*\
| =========                 |                                                 |
| \\      /  F ield         | OpenFOAM Extend Project: Open Source CFD        |
|  \\    /   O peration     | Version:  1.6-ext                               |
|   \\  /    A nd           | Web:      www.extend-project.de                 |
|    \\/     M anipulation  |                                                 |
\*---------------------------------------------------------------------------*/
FoamFile
{
    version     2.0;
    format      ascii;
    class       volScalarField;
    object      T;
}
// * * * * * * * * * * * * * * * * * * * * * * * * * * * * * * * * * * * * * //

dimensions      [0 0 0 1 0 0 0];

internalField   uniform 298.0;

boundaryField
{
    inlet
    {
        type            fixedValue;
        value           uniform 247.1;
    }

    outlet
    {
        type            zeroGradient;
    }

    freestream
    {
        type            totalTemperature;
        value           uniform 297;
        T0              uniform 297;
		U               U;
        phi             phi;
        rho             none;
        psi             psi;
        gamma           1.4;
    }

    freestreamInlet
    {
        type            fixedValue;
        value           uniform 297.0;
    }

    wedge1 {type wedge;}
    wedge2 {type wedge;}
}

// ************************************************************************* //
