/*--------------------------------*- C++ -*----------------------------------*\
| =========                 |                                                 |
| \\      /  F ield         | foam-extend: Open Source CFD                    |
|  \\    /   O peration     | Version:     3.2                                |
|   \\  /    A nd           | Web:         http://www.foam-extend.org         |
|    \\/     M anipulation  |                                                 |
\*---------------------------------------------------------------------------*/
FoamFile
{
    version     2.0;
    format      ascii;
    class       dictionary;
    location    "constant";
    object      rheologyProperties;
}
// * * * * * * * * * * * * * * * * * * * * * * * * * * * * * * * * * * * * * //

planeStress yes;

rheology
{
  type            orthotropicLinearElastic;
  rho             rho [1 -3 0 0 0 0 0] 7854;
  Ex              Ex [1 -1 -2 0 0 0 0] 200e+9;
  Ey              Ey [1 -1 -2 0 0 0 0] 60e+9;
  Ez              Ez [1 -1 -2 0 0 0 0] 60e+9;
  nuxy            nuxy [0 0 0 0 0 0 0] 0.3;
  nuyz            nuyz [0 0 0 0 0 0 0] 0.09;
  nuzx            nuzx [0 0 0 0 0 0 0] 0.09;
  Gxy             Gxy [1 -1 -2 0 0 0 0] 30e9;
  Gyz             Gyz [1 -1 -2 0 0 0 0] 30e9;
  Gzx             Gzx [1 -1 -2 0 0 0 0] 30e9;
}

// ************************************************************************* //
