/*--------------------------------*- C++ -*----------------------------------*\
| =========                 |                                                 |
| \\      /  F ield         | OpenFOAM Extend Project: Open Source CFD        |
|  \\    /   O peration     | Version:  1.6-ext                               |
|   \\  /    A nd           | Web:      www.extend-project.de                 |
|    \\/     M anipulation  |                                                 |
\*---------------------------------------------------------------------------*/
FoamFile
{
    version     2.0;
    format      binary;
    class       polyBoundaryMesh;
    location    "constant/polyMesh";
    object      boundary;
}
// * * * * * * * * * * * * * * * * * * * * * * * * * * * * * * * * * * * * * //

4
(
    inlet
    {
        type            patch;
        nFaces          51;
        startFace       15151;
    }
    outlet
    {
        type            patch;
        nFaces          51;
        startFace       15202;
    }
    walls
    {
        type            wall;
        nFaces          436;
        startFace       15253;
    }
    frontBack
    {
        type            empty;
        nFaces          15420;
        startFace       15689;
    }
)

// ************************************************************************* //
