/*--------------------------------*- C++ -*----------------------------------*\
| =========                 |                                                 |
| \\      /  F ield         | OpenFOAM: The Open Source CFD Toolbox           |
|  \\    /   O peration     | Version:  1.4.1-dev                             |
|   \\  /    A nd           | Web:      http://www.openfoam.org               |
|    \\/     M anipulation  |                                                 |
\*---------------------------------------------------------------------------*/

FoamFile
{
    version 2.0;
    format ascii;

    root "/home/jovani/jovaniFoam/foamNewSolver/cases/recentCases/upwind";
    case "Leonov";
    instance "0";
    local "";

    class volSymmTensorField;
    object sigmafirst;
}

// * * * * * * * * * * * * * * * * * * * * * * * * * * * * * * * * * * * * * //

dimensions      [1 -1 -2 0 0 0 0];

internalField   uniform (50 0 0 50 0 50);

boundaryField
{
    inlet
    {
        type            fixedValue;
        value           uniform (50 0 0 50 0 50);
    }
    fixedWalls
    {
        type            zeroGradient;
    }
    outlet
    {
        type            zeroGradient;
    }
    simetry
    {
        type            symmetryPlane;
    }
    frontAndBack
    {
        type            empty;
    }
}


// ************************************************************************* //
