/*--------------------------------*- C++ -*----------------------------------*\
| =========                 |                                                 |
| \\      /  F ield         | foam-extend: Open Source CFD                    |
|  \\    /   O peration     | Version:     4.0                                |
|   \\  /    A nd           | Web:         http://www.foam-extend.org         |
|    \\/     M anipulation  |                                                 |
\*---------------------------------------------------------------------------*/
FoamFile
{
    version     2.0;
    format      ascii;
    class       dictionary;
    object      dynamicMeshDict;
}
// * * * * * * * * * * * * * * * * * * * * * * * * * * * * * * * * * * * * * //

dynamicFvMesh       turboFvMesh;

turboFvMeshCoeffs
{
    coordinateSystem
    {
        type            cylindrical;
        origin          (0 0 0);
        axis            (0 0 1);
        direction       (1 0 0);
    }

    rpm
    {
        Rotor1 60;
        Rotor2 -30;
    }

    slider
    {
        Rotor1_faceZone 60;
        Rotor2_faceZone -30;
    }
}


// ************************************************************************* //

