/*--------------------------------*- C++ -*----------------------------------*\
| =========                 |                                                |
| \\      /  F ield         | cfMesh: A library for mesh generation          | 
|  \\    /   O peration     |                                                |
|   \\  /    A nd           | Author: Franjo Juretic                         | 
|    \\/     M anipulation  | E-mail: franjo.juretic@c-fields.com            |
\*---------------------------------------------------------------------------*/

FoamFile
{
    version   2.0;
    format    ascii;
    class     dictionary;
    location  "system";
    object    meshDict;
}

// ************************************************************************* //

applicationClass    ;

startFrom           latestTime;

startTime           0;

stopAt              endTime;

endTime             2000;

deltaT              1;

writeControl        timeStep;

writeInterval       100;

cycleWrite          0;

writeFormat         ascii;

writeCompression    compressed;

timeFormat          general;

timePrecision       6;

runTimeModifiable   yes;

nCorrectors         2;

nNonOrthogonalCorrectors 0;


// ************************************************************************* //
