/*--------------------------------*- C++ -*----------------------------------*\
| =========                 |                                                 |
| \\      /  F ield         | OpenFOAM: The Open Source CFD Toolbox           |
|  \\    /   O peration     | Version:  1.5-dev                               |
|   \\  /    A nd           | Revision: 1697                                  |
|    \\/     M anipulation  | Web:      http://www.OpenFOAM.org               |
\*---------------------------------------------------------------------------*/
FoamFile
{
    version     2.0;
    format      ascii;
    class       polyBoundaryMesh;
    location    "constant/polyMesh";
    object      boundary;
}
// * * * * * * * * * * * * * * * * * * * * * * * * * * * * * * * * * * * * * //

3
(
    left
    {
        type            patch;
        nFaces          1;
        startFace       49;
    }
    right
    {
        type            patch;
        nFaces          1;
        startFace       50;
    }
    frontAndBack
    {
        type            empty;
        physicalType    empty;
        nFaces          200;
        startFace       51;
    }
)

// ************************************************************************* //
