/*--------------------------------*- C++ -*----------------------------------*\
| =========                 |                                                 |
| \\      /  F ield         | OpenFOAM Extend Project: Open Source CFD        |
|  \\    /   O peration     | Version:  1.6-ext                               |
|   \\  /    A nd           | Web:      www.extend-project.de                 |
|    \\/     M anipulation  |                                                 |
\*---------------------------------------------------------------------------*/
FoamFile
{
    version     2.0;
    format      ascii;
    class       dictionary;
    location    "system";
    object      fvSolution;
}
// * * * * * * * * * * * * * * * * * * * * * * * * * * * * * * * * * * * * * //

solvers
{
    DU
    {
        solver          PCG;
        preconditioner  DIC;
        tolerance       1e-13;
        relTol          0.1;
    }
}

stressedFoam
{
    nCorrectors     10000;
    DU              1e-12;

    divDSigmaExp             surface;
    divDSigmaLargeStrainExp  surface;
    //moveMeshMethod           inverseDistance;
    moveMeshMethod           leastSquares;
    solidInterface           no;
}

// relaxationFactors
// {
//   DU 0.9;
//   divDSigmaExpLargeStrain 0.75;
// }
// ************************************************************************* //
