/*--------------------------------*- C++ -*----------------------------------*\
| =========                 |                                                 |
| \\      /  F ield         | OpenFOAM Extend Project: Open Source CFD        |
|  \\    /   O peration     | Version:  1.6-ext                               |
|   \\  /    A nd           | Web:      www.extend-project.de                 |
|    \\/     M anipulation  |                                                 |
\*---------------------------------------------------------------------------*/
FoamFile
{
    version     2.0;
    format      ascii;
    class       dictionary;
    object      motionProperties;
}
// * * * * * * * * * * * * * * * * * * * * * * * * * * * * * * * * * * * * * //

dynamicFvMesh dynamicMotionSolverFvMesh;

motionSolverLibs ("libfvMotionSolver.so");

//solver laplacian;
solver velocityComponentLaplacian x;

// diffusivity  uniform;
diffusivity  directional (1 200 0);
// diffusivity  motionDirectional (1 1000 0);
// diffusivity  inverseDistance 1(movingWall);
// diffusivity  file motionDiffusivity;
// diffusivity  quadratic inverseDistance 1(movingWall);
// diffusivity  exponential 2000 inverseDistance 1(movingWall);

// ************************************************************************* //
