/*--------------------------------*- C++ -*----------------------------------*\
| =========                 |                                                 |
| \\      /  F ield         | OpenFOAM Extend Project: Open source CFD        |
|  \\    /   O peration     | Version:  1.6-ext                               |
|   \\  /    A nd           | Web:      www.extend-project.de                 |
|    \\/     M anipulation  |                                                 |
\*---------------------------------------------------------------------------*/
FoamFile
{
    version     2.0;
    format      ascii;
    class       polyBoundaryMesh;
    location    "constant/polyMesh";
    object      boundary;
}
// * * * * * * * * * * * * * * * * * * * * * * * * * * * * * * * * * * * * * //

3
(
    bottomWall
    {
        type            wall;
        nFaces          89;
        startFace       3676;
    }
    topWall
    {
        type            wall;
        nFaces          89;
        startFace       3765;
    }
    sideWall
    {
        type            wall;
        nFaces          480;
        startFace       3854;
    }
)

// ************************************************************************* //
