/*--------------------------------*- C++ -*----------------------------------*\
| =========                 |                                                 |
| \\      /  F ield         | OpenFOAM Extend Project: Open Source CFD        |
|  \\    /   O peration     | Version:  1.6-ext                               |
|   \\  /    A nd           | Web:      www.extend-project.de                 |
|    \\/     M anipulation  |                                                 |
\*---------------------------------------------------------------------------*/
FoamFile
{
    version     2.0;
    format      ascii;
    class       polyBoundaryMesh;
    object      boundary;
}
// * * * * * * * * * * * * * * * * * * * * * * * * * * * * * * * * * * * * * //

6
(
    left
    {
        type            symmetryPlane;
        nFaces          110;
        startFace       17980;
    }
    right
    {
        type            symmetryPlane;
        nFaces          80;
        startFace       18090;
    }
    down
    {
        type            symmetryPlane;
        nFaces          110;
        startFace       18170;
    }
    up
    {
        type            patch;
        nFaces          80;
        startFace       18280;
    }
    hole
    {
        type            patch;
        nFaces          60;
        startFace       18360;
    }
    defaultFaces
    {
        type            empty;
        nFaces          18200;
        startFace       18420;
    }
)

// ************************************************************************* //
