/*--------------------------------*- C++ -*----------------------------------*\
| =========                 |                                                 |
| \\      /  F ield         | OpenFOAM Extend Project: Open Source CFD        |
|  \\    /   O peration     | Version:  1.6-ext                               |
|   \\  /    A nd           | Web:      www.extend-project.de                 |
|    \\/     M anipulation  |                                                 |
\*---------------------------------------------------------------------------*/
FoamFile
{
    version     2.0;
    format      ascii;
    class       dictionary;
    object      transportProperties;
}
// * * * * * * * * * * * * * * * * * * * * * * * * * * * * * * * * * * * * * //

// water
phaseb
{
    nu              nu [0 2 -1 0 0 0 0] 1.0e-06;
    rho             rho [1 -3 0 0 0 0 0] 1000.0;
    d               d [0 1 0 0 0 0 0] 0.0001;
}

// air
phasea
{
    nu              nu [0 2 -1 0 0 0 0] 1.6e-05;
    rho             rho [1 -3 0 0 0 0 0] 1.0;
    d               d [0 1 0 0 0 0 0] 0.003;
}

Cvm             Cvm [0 0 0 0 0 0 0] 0.5;

Cl              Cl [0 0 0 0 0 0 0] 0;

Ct              Ct [0 0 0 0 0 0 0] 1.0;

// ************************************************************************* //
