/*--------------------------------*- C++ -*----------------------------------*\
| =========                 |                                                 |
| \\      /  F ield         | OpenFOAM Extend Project: Open Source CFD        |
|  \\    /   O peration     | Version:  1.6-ext                               |
|   \\  /    A nd           | Web:      www.extend-project.de                 |
|    \\/     M anipulation  |                                                 |
\*---------------------------------------------------------------------------*/
FoamFile
{
    version     2.0;
    format      ascii;
    class       dictionary;
    object      fvSolution;
}
// * * * * * * * * * * * * * * * * * * * * * * * * * * * * * * * * * * * * * //

solvers
{
    // Solver for the U equation
    U               ICCG 1e-12 0;
    // Solver for the k equation
    k               BICCG 1e-06 0;
    // Solver for the epsilon equation
    epsilon         BICCG 1e-06 0;
    // Solver for the R equation
    R               BICCG 1e-06 0;
    // Solver for the nuTilda equation
    nuTilda         BICCG 1e-06 0;
}

PISO
{
    // Number of PISO correctors
    nCorrectors     2;
    // Number of non-orthogonal correctors
    nNonOrthogonalCorrectors 0;
    // momentumPredictor?
    momentumPredictor yes;
    // fluxGradp?
    fluxGradp       no;
}

relaxationFactors
{
    // U
    U               0.1;
    // k
    k               0.7;
    // epsilon
    epsilon         0.7;
    // R
    R               0.7;
    // nuTilda
    nuTilda         0.7;
}

// ************************************************************************* //
