/*--------------------------------*- C++ -*----------------------------------*\
| =========                 |                                                 |
| \\      /  F ield         | OpenFOAM Extend Project: Open Source CFD        |
|  \\    /   O peration     | Version:  1.6-ext                               |
|   \\  /    A nd           | Web:      www.extend-project.de                 |
|    \\/     M anipulation  |                                                 |
\*---------------------------------------------------------------------------*/
FoamFile
{
    version     2.0;
    format      ascii;
    class       dictionary;
    object      sampleDict;
}
// * * * * * * * * * * * * * * * * * * * * * * * * * * * * * * * * * * * * * //

interpolationScheme cellPoint;

writeFormat     raw;

sampleSets
(
    uniform
    {
        name            cut;
        axis            distance;
        start           (0.0025 -0.05 0.0025);
        end             (0.0025 0.05 0.0025);
        nPoints         100;
    }
);

fields
(
    T
);

// ************************************************************************* //
