/*--------------------------------*- C++ -*----------------------------------*\
| =========                 |                                                 |
| \\      /  F ield         | foam-extend: Open Source CFD                    |
|  \\    /   O peration     | Version:     3.2                                |
|   \\  /    A nd           | Web:         http://www.foam-extend.org         |
|    \\/     M anipulation  |                                                 |
\*---------------------------------------------------------------------------*/
FoamFile
{
    version     2.0;
    format      ascii;
    class       faBoundaryMesh;
    location    "constant/faMesh";
    object      faBoundary;
}
// * * * * * * * * * * * * * * * * * * * * * * * * * * * * * * * * * * * * * //

5
(
    inlet
    {
        type            patch;
        edgeLabels      List<label>
30
(
4020
4021
4022
4023
4024
4025
4026
4027
4028
4029
4030
4031
4032
4033
4034
4035
4036
4037
4038
4039
4060
4062
4063
4064
4065
4066
4067
4068
4069
4070
)
;
        ngbPolyPatchIndex 3;
    }
    outlet
    {
        type            patch;
        edgeLabels      List<label>
30
(
3929
3931
3932
3933
3934
3935
3936
3937
3938
3939
3959
3960
3961
3962
3963
3964
3965
3966
3967
3968
3969
3970
3971
3972
3973
3974
3975
3976
3977
3979
)
;
        ngbPolyPatchIndex 1;
    }
    side
    {
        type            patch;
        edgeLabels      List<label>
60
(
3940
3941
3942
3943
3944
3945
3946
3947
3948
3949
3950
3951
3952
3953
3954
3955
3956
3957
3958
3978
3980
3981
3982
3983
3984
3985
3986
3987
3988
3989
4000
4001
4002
4003
4004
4005
4006
4007
4008
4009
4040
4041
4042
4043
4044
4045
4046
4047
4048
4049
4050
4051
4052
4053
4054
4055
4056
4057
4058
4059
)
;
        ngbPolyPatchIndex 2;
    }
    symmetry
    {
        type            symmetryPlane;
        edgeLabels      List<label>
60
(
3891
3901
3902
3903
3904
3905
3906
3907
3908
3909
3910
3911
3912
3913
3914
3915
3916
3917
3918
3919
3920
3921
3922
3923
3924
3925
3926
3927
3928
3930
4061
4071
4072
4073
4074
4075
4076
4077
4078
4079
4080
4081
4082
4083
4084
4085
4086
4087
4088
4089
4090
4091
4092
4093
4094
4095
4096
4097
4098
4100
)
;
        ngbPolyPatchIndex 0;
    }
    cylinder
    {
        type            patch;
        edgeLabels      List<label>
40
(
3890
3892
3893
3894
3895
3896
3897
3898
3899
3900
3990
3991
3992
3993
3994
3995
3996
3997
3998
3999
4010
4011
4012
4013
4014
4015
4016
4017
4018
4019
4099
4101
4102
4103
4104
4105
4106
4107
4108
4109
)
;
        ngbPolyPatchIndex 4;
    }
)

// ************************************************************************* //
