/*--------------------------------*- C++ -*----------------------------------*\
| =========                 |                                                 |
| \\      /  F ield         | OpenFOAM Extend Project: Open source CFD        |
|  \\    /   O peration     | Version:  1.6-ext                               |
|   \\  /    A nd           | Web:      www.extend-project.de                 |
|    \\/     M anipulation  |                                                 |
\*---------------------------------------------------------------------------*/
FoamFile
{
    version     2.0;
    format      ascii;
    class       dictionary;
    location    "constant/faMesh";
    object      faMeshDefinition;
}
// * * * * * * * * * * * * * * * * * * * * * * * * * * * * * * * * * * * * * //

polyMeshPatches  1( film );

boundary
{
    inlet
    {
        type                patch;
        ownerPolyPatch      film;
        neighbourPolyPatch  inlet;
    }

    outlet
    {
        type                patch;
        ownerPolyPatch      film;
        neighbourPolyPatch  outlet;
    }

    side
    {
        type                patch;
        ownerPolyPatch      film;
        neighbourPolyPatch  side;
    }

    symmetry
    {
        type                symmetryPlane;
        ownerPolyPatch      film;
        neighbourPolyPatch  symmetry;
    }

    cylinder
    {
        type                patch;
        ownerPolyPatch      film;
        neighbourPolyPatch  cylinder;
    }
}


// ************************************************************************** //
