/*--------------------------------*- C++ -*----------------------------------*\
| =========                 |                                                 |
| \\      /  F ield         | foam-extend: Open Source CFD                    |
|  \\    /   O peration     | Version:     3.2                                |
|   \\  /    A nd           | Web:         http://www.foam-extend.org         |
|    \\/     M anipulation  |                                                 |
\*---------------------------------------------------------------------------*/
FoamFile
{
    version     2.0;
    format      ascii;
    class       dictionary;
    location    "system";
    object      controlDict;
}
// * * * * * * * * * * * * * * * * * * * * * * * * * * * * * * * * * * * * * //

application    surfactantFoam;

startFrom           startTime;

startTime           0;

stopAt              endTime;

endTime             6;

deltaT              0.1;

writeControl        runTime;

writeInterval       0.2;

purgeWrite          0;

writeFormat         ascii;

writeCompression    uncompressed;

timeFormat          general;

timePrecision       6;

runTimeModifiable   yes;

// ************************************************************************* //
