/*--------------------------------*- C++ -*----------------------------------*\
| =========                 |                                                 |
| \\      /  F ield         | foam-extend: Open Source CFD                    |
|  \\    /   O peration     | Version:     3.2                                |
|   \\  /    A nd           | Web:         http://www.foam-extend.org         |
|    \\/     M anipulation  |                                                 |
\*---------------------------------------------------------------------------*/
FoamFile
{
    version     2.0;
    format      ascii;
    class       volVectorField;
    location    "-1";
    object      icoFoam1@-1@0@U;
}
// * * * * * * * * * * * * * * * * * * * * * * * * * * * * * * * * * * * * * //

dimensions      [0 1 -1 0 0 0 0];

internalField   uniform (0 0 0);

boundaryField
{
    steetWalls
    {
        type            fixedValue;
        value           uniform (0 0 0);
    }
    branchWalls
    {
        type            fixedValue;
        value           uniform (0 0 0);
    }
    westStreet
    {
        type            fixedValue;
        value           uniform (0 0 0);
    }
    eastStreet
    {
        type            zeroGradient;
    }
    northBranch
    {
        type            fixedValue;
        value           uniform (0 -1 0);
    }
    defaultFaces
    {
        type            empty;
    }
}

// ************************************************************************* //
