/*--------------------------------*- C++ -*----------------------------------*\
| =========                 |                                                 |
| \\      /  F ield         | foam-extend: Open Source CFD                    |
|  \\    /   O peration     | Version:     4.0                                |
|   \\  /    A nd           | Web:         http://www.foam-extend.org         |
|    \\/     M anipulation  |                                                 |
\*---------------------------------------------------------------------------*/
FoamFile
{
    version     2.0;
    format      ascii;
    class       dictionary;
    object      fvSchemes;
}
// * * * * * * * * * * * * * * * * * * * * * * * * * * * * * * * * * * * * * //

d2dt2Schemes
{
    default Euler;
}

ddtSchemes
{
    default Euler;
}


gradSchemes
{
    default none;
}

divSchemes
{
    default none;
}

laplacianSchemes
{
    default none;
    laplacian(DD,D) Gauss linear skewCorrected 1;
    laplacian(DDD,DD) Gauss linear skewCorrected 1;
}

snGradSchemes
{
    default none;
    snGrad(D) skewCorrected 1;
    snGrad(DD) skewCorrected 1;
}

interpolationSchemes
{
    default none;
    interpolate(mu) linear;
    interpolate(lambda) linear;
}

// ************************************************************************* //
