/*--------------------------------*- C++ -*----------------------------------*\
| =========                 |                                                 |
| \\      /  F ield         | OpenFOAM Extend Project: Open source CFD        |
|  \\    /   O peration     | Version:  1.6-ext                               |
|   \\  /    A nd           | Web:      www.extend-project.de                 |
|    \\/     M anipulation  |                                                 |
\*---------------------------------------------------------------------------*/
FoamFile
{
    version         2.0;
    format          ascii;
    class           dictionary;
    object          dynamicMeshDict;
}

// * * * * * * * * * * * * * * * * * * * * * * * * * * * * * * * * * * * * * //

dynamicFvMesh dynamicMotionSolverFvMesh;

twoDMotion yes;

solver laplaceFaceDecomposition;

diffusivity quadratic;

distancePatches 1 (freeSurface);

frozenDiffusion yes;

pseudoSolid
{
    poissonsRatio           0.3;
    nCorrectors             3;
    convergenceTolerance    1e-9;
};

// ************************************************************************* //
