/*--------------------------------*- C++ -*----------------------------------*\
| =========                 |                                                 |
| \\      /  F ield         | foam-extend: Open Source CFD                    |
|  \\    /   O peration     | Version:     3.2                                |
|   \\  /    A nd           | Web:         http://www.foam-extend.org         |
|    \\/     M anipulation  |                                                 |
\*---------------------------------------------------------------------------*/
FoamFile
{
    version     2.0;
    format      ascii;
    class       dictionary;
    object      blockMeshDict;
}
// * * * * * * * * * * * * * * * * * * * * * * * * * * * * * * * * * * * * * //

convertToMeters 1;

vertices
(
    (-2.5 -4.8 -0.1)
    ( 10  -4.8 -0.1)
    ( 10   4.8 -0.1)
    (-2.5  4.8 -0.1)
    (-2.5 -4.8  0.1)
    ( 10  -4.8  0.1)
    ( 10   4.8  0.1)
    (-2.5  4.8  0.1)
);

blocks
(
    hex (0 1 2 3 4 5 6 7) (75 48 1) simpleGrading (1 1 1)
);

edges
(
);

boundary
(
    topAndBottom
    {
        type patch;
        faces
        (
            (3 7 6 2)
            (1 5 4 0)
        );
    }

    inlet
    {
        type patch;
        faces
        (
            (0 4 7 3)
        );
    }

    outlet
    {
        type patch;
        faces
        (
            (2 6 5 1)
        );
    }

    symFront
    {
        type symmetryPlane;
        faces
        (
            (4 5 6 7)
        );
    }

    symBack
    {
        type symmetryPlane;
        faces
        (
            (0 3 2 1)
        );
    }
);

mergePatchPairs
(
);

// ************************************************************************* //
