/*--------------------------------*- C++ -*----------------------------------*\
| =========                 |                                                 |
| \\      /  F ield         | foam-extend: Open Source CFD                    |
|  \\    /   O peration     | Version:     3.1                                |
|   \\  /    A nd           | Web:         http://www.extend-project.de       |
|    \\/     M anipulation  |                                                 |
\*---------------------------------------------------------------------------*/
FoamFile
{
    version     2.0;
    format      ascii;
    class       polyBoundaryMesh;
    location    "constant/polyMesh";
    object      boundary;
}
// * * * * * * * * * * * * * * * * * * * * * * * * * * * * * * * * * * * * * //

6
(
    topAndBottom
    {
        type            patch;
        nFaces          150;
        startFace       1654057;
    }
    inlet
    {
        type            patch;
        nFaces          48;
        startFace       1654207;
    }
    outlet
    {
        type            patch;
        nFaces          48;
        startFace       1654255;
    }
    symFront
    {
        type            symmetryPlane;
        nFaces          35801;
        startFace       1654303;
    }
    symBack
    {
        type            symmetryPlane;
        nFaces          35792;
        startFace       1690104;
    }
    wing_5degrees.obj_WALL10
    {
        type            wall;
        nFaces          56064;
        startFace       1725896;
    }
)

// ************************************************************************* //
