/*--------------------------------*- C++ -*----------------------------------*\
| =========                 |                                                 |
| \\      /  F ield         | foam-extend: Open Source CFD                    |
|  \\    /   O peration     | Version:     3.2                                |
|   \\  /    A nd           | Web:         http://www.foam-extend.org         |
|    \\/     M anipulation  |                                                 |
\*---------------------------------------------------------------------------*/
FoamFile
{
    version     2.0;
    format      ascii;
    class       polyBoundaryMesh;
    location    "constant/polyMesh";
    object      boundary;
}
// * * * * * * * * * * * * * * * * * * * * * * * * * * * * * * * * * * * * * //

5
(
    topAndBottom
    {
        type            patch;
        nFaces          150;
        startFace       7077;
    }
    inlet
    {
        type            patch;
        nFaces          48;
        startFace       7227;
    }
    outlet
    {
        type            patch;
        nFaces          48;
        startFace       7275;
    }
    symFront
    {
        type            symmetryPlane;
        nFaces          3600;
        startFace       7323;
    }
    symBack
    {
        type            symmetryPlane;
        nFaces          3600;
        startFace       10923;
    }
)

// ************************************************************************* //
