/*--------------------------------*- C++ -*----------------------------------*\
| =========                 |                                                 |
| \\      /  F ield         | foam-extend: Open Source CFD                    |
|  \\    /   O peration     | Version:     3.2                                |
|   \\  /    A nd           | Web:         http://www.foam-extend.org         |
|    \\/     M anipulation  | For copyright notice see file Copyright         |
\*---------------------------------------------------------------------------*/
FoamFile
{
    version     2.0;
    format      ascii;
    class       polyBoundaryMesh;
    location    "constant/polyMesh";
    object      boundary;
}
// * * * * * * * * * * * * * * * * * * * * * * * * * * * * * * * * * * * * * //

6
(
    topAndBottom
    {
        type            patch;
        nFaces          150;
        startFace       2087919;
    }
    inlet
    {
        type            patch;
        nFaces          48;
        startFace       2088069;
    }
    outlet
    {
        type            patch;
        nFaces          48;
        startFace       2088117;
    }
    symFront
    {
        type            symmetryPlane;
        nFaces          35801;
        startFace       2088165;
    }
    symBack
    {
        type            symmetryPlane;
        nFaces          35792;
        startFace       2123966;
    }
    wing_5degrees.obj_WALL10
    {
        type            wall;
        nFaces          49792;
        startFace       2159758;
    }
)

// ************************************************************************* //
