/*--------------------------------*- C++ -*----------------------------------*\
| =========                 |                                                 |
| \\      /  F ield         | OpenFOAM Extend Project: Open Source CFD        |
|  \\    /   O peration     | Version:  1.6-ext                               |
|   \\  /    A nd           | Web:      www.extend-project.de                 |
|    \\/     M anipulation  |                                                 |
\*---------------------------------------------------------------------------*/
FoamFile
{
    version     2.0;
    format      ascii;
    class       polyBoundaryMesh;
    location    "constant/polyMesh";
    object      boundary;
}
// * * * * * * * * * * * * * * * * * * * * * * * * * * * * * * * * * * * * * //

4
(
    inlet
    {
        type            patch;
        nFaces          30;
        startFace       11770;
    }
    outlet
    {
        type            patch;
        nFaces          30;
        startFace       11800;
    }
    walls
    {
        type            wall;
        nFaces          400;
        startFace       11830;
    }
    frontAndBackPlanes
    {
        type            empty;
        nFaces          12000;
        startFace       12230;
    }
)

// ************************************************************************* //
