/*--------------------------------*- C++ -*----------------------------------*\
| =========                 |                                                 |
| \\      /  F ield         | OpenFOAM Extend Project: Open Source CFD        |
|  \\    /   O peration     | Version:  1.6-ext                               |
|   \\  /    A nd           | Web:      www.extend-project.de                 |
|    \\/     M anipulation  |                                                 |
\*---------------------------------------------------------------------------*/
FoamFile
{
    version     2.0;
    format      ascii;
    class       dictionary;
    location    "system";
    object      fvSchemes;
}
// * * * * * * * * * * * * * * * * * * * * * * * * * * * * * * * * * * * * * //

d2dt2Schemes
{
    default     none;
}

ddtSchemes
{
    default     none;
//    ddt(DU)     Euler;
    ddt(DU)     backward;
}


gradSchemes
{
    default         none;
    grad(DU)        Gauss linear;
    grad(Us)        Gauss linear;
    snGradCorr(DU)  Gauss linear;
}

divSchemes
{
    default         none;
    div(sigma)      Gauss linear;
}

laplacianSchemes
{
    default         	none;
    laplacian(DDU,DU) 	Gauss linear corrected;
}

snGradSchemes
{
    default none;
//    snGrad(U)       corrected;
}

interpolationSchemes
{
    default                  none;
    interpolate(sigma) linear;
    interpolate(mu) linear;
}

// ************************************************************************* //
