/*--------------------------------*- C++ -*----------------------------------*\
| =========                 |                                                |
| \\      /  F ield         | cfMesh: A library for mesh generation          | 
|  \\    /   O peration     |                                                |
|   \\  /    A nd           | Author: Franjo Juretic                         | 
|    \\/     M anipulation  | E-mail: franjo.juretic@c-fields.com            |
\*---------------------------------------------------------------------------*/

FoamFile
{
    version   2.0;
    format    ascii;
    class     dictionary;
    location  "system";
    object    meshDict;
}

// * * * * * * * * * * * * * * * * * * * * * * * * * * * * * * * * * * * * * //

surfaceFile "geom.stl";

maxCellSize 0.2;

boundaryCellSize 0.025;

minCellSize 0.0125;

localRefinement
{
    defaultFaces0006
    {
        cellSize 0.005;
    }
    defaultFaces0007
    {
        cellSize 0.0025;
    }
    defaultFaces0009
    {
        cellSize 0.0025;
    }
}
 
// ************************************************************************* //
