/*--------------------------------*- C++ -*----------------------------------*\
| =========                 |                                                 |
| \\      /  F ield         | OpenFOAM: The Open Source CFD Toolbox           |
|  \\    /   O peration     | Version:  1.5                                   |
|   \\  /    A nd           | Web:      http://www.OpenFOAM.org               |
|    \\/     M anipulation  |                                                 |
\*---------------------------------------------------------------------------*/
FoamFile
{
    version     2.0;
    format      ascii;
    class       dictionary;
    object      thermoCloud1Properties;
}
// * * * * * * * * * * * * * * * * * * * * * * * * * * * * * * * * * * * * * //

// Particle sub-models
InjectionModel                           ManualInjection;
DragModel                                SphereDrag;
DispersionModel                          StochasticDispersionRAS;
WallInteractionModel                     StandardWallInteraction;
HeatTransferModel                        RanzMarshall;

radiation                                off;

// Parcel basis type
parcelBasisType                          mass;

// Total mass to inject
massTotal  massTotal [ 1  0  0  0  0]    1e-4;

// Minimum particle mass
minParticleMass      minParticleMass     [ 1  0  0  0  0]     1.0e-15;

// Parcel thermo properties
rho0      rho0     [ 1 -3  0  0  0]      2500;
T0        T0       [ 0  0  0  1  0]      300;
cp0       cp0      [ 0  2 -2 -1  0]      900;
epsilon0  epsilon0 [ 0  0  0  0  0]      1;
f0        f0       [ 0  0  0  0  0]      0.5;

// Coupling between particles and carrier phase via source terms
coupled                                  true;

// Integer used to identify different parcel types
parcelTypeId                             1;

interpolationSchemes
{
    rho                                  cell;
    U                                    cellPointFace;
    mu                                   cell;
    T                                    cell;
    Cp                                   cell;
}

integrationSchemes
{
    U                                    Euler;
    T                                    Analytical;
}

ManualInjectionCoeffs
{
    SOI                                  0.0;
    positionsFile                        thermoCloud1Positions;
    U0                                   (0 0 0);
    parcelPDF
    {
        pdfType                          RosinRammler;
        RosinRammlerPDF
        {
            minValue                     5.0e-06;
            maxValue                     500.0e-06;
            d                            (50.0e-06);
            n                            (0.5);
        }
    }
}

StandardWallInteractionCoeffs
{
    e      e        [ 0  0  0  0  0]     1;
    mu     mu       [ 0  0  0  0  0]     0;
}

RanzMarshallCoeffs
{
    Pr    Pr       [ 0  0  0  0  0]     0.7;
}

// ************************************************************************* //
