/*--------------------------------*- C++ -*----------------------------------*\
| =========                 |                                                 |
| \\      /  F ield         | foam-extend: Open Source CFD                    |
|  \\    /   O peration     | Version:     3.2                                |
|   \\  /    A nd           | Web:         http://www.foam-extend.org         |
|    \\/     M anipulation  |                                                 |
\*---------------------------------------------------------------------------*/
FoamFile
{
    version     2.0;
    format      ascii;
    class       volVectorField;
    object      U;
}
// * * * * * * * * * * * * * * * * * * * * * * * * * * * * * * * * * * * * * //

dimensions      [0 1 -1 0 0 0 0];

internalField   uniform (600 148.16 0);

boundaryField
{
    pressure-far-field-1
    {
        type            supersonicFreestream;
        pInf            100000;
        TInf            300;
        UInf            (600 148.16 0);
        gamma           1.4;
        value           uniform (600 148.16 0);
    }

    wall
    {
        type            fixedValue;
        value           uniform (0 0 0);
    }

    frontAndBackPlanes
    {
        type            empty;
    }
}

// ************************************************************************* //
