/*--------------------------------*- C++ -*----------------------------------*\
| =========                 |                                                 |
| \\      /  F ield         | OpenFOAM Extend Project: Open Source CFD        |
|  \\    /   O peration     | Version:  1.6-ext                               |
|   \\  /    A nd           | Web:      www.extend-project.de                 |
|    \\/     M anipulation  |                                                 |
\*---------------------------------------------------------------------------*/
FoamFile
{
    version     2.0;
    format      ascii;
    class       volVectorField;
    location    "0";
    object      DU;
}
// * * * * * * * * * * * * * * * * * * * * * * * * * * * * * * * * * * * * * //

dimensions      [0 1 0 0 0 0 0];

internalField   uniform (0 0 0);

boundaryField
{
    topBrickUp
    {
      type            timeVaryingFixedDisplacement;
      outOfBounds     clamp;
      fileName        "$FOAM_CASE/constant/timeVsTopDisp";
      value           uniform (0 0 0);
      field           updatedLagrangian;
    }

    bottomBrickDown
    {
        type            fixedDisplacement;
        value           uniform (0 0 0);
    }

    bottomBrickUp
    {
        type            solidTraction;
	nonLinear       updatedLagrangian;
        traction        uniform ( 0 0 0 );
        pressure        uniform 0;
        value           uniform (0 0 0);
    }

    topBrickDown
    {
        type            solidTraction;
	nonLinear       updatedLagrangian;
        traction        uniform ( 0 0 0 );
        pressure        uniform 0;
        value           uniform (0 0 0);
    }

    bottomBrickLeft
    {
        type            solidTraction;
	nonLinear       updatedLagrangian;
        traction        uniform ( 0 0 0 );
        pressure        uniform 0;
        value           uniform (0 0 0);
    }

    bottomBrickRight
    {
        type            solidTraction;
	nonLinear       updatedLagrangian;
        traction        uniform ( 0 0 0 );
        pressure        uniform 0;
        value           uniform (0 0 0);
    }
    topBrickLeft
    {
        type            solidTraction;
	nonLinear       updatedLagrangian;
        traction        uniform ( 0 0 0 );
        pressure        uniform 0;
        value           uniform (0 0 0);
    }
    topBrickRight
    {
        type            solidTraction;
	nonLinear       updatedLagrangian;
        traction        uniform ( 0 0 0 );
        pressure        uniform 0;
        value           uniform (0 0 0);
    }
    back
    {
        type            empty;
    }
    front
    {
        type            empty;
    }
}

// ************************************************************************* //
