/*--------------------------------*- C++ -*----------------------------------*\
| =========                 |                                                 |
| \\      /  F ield         | foam-extend: Open Source CFD                    |
|  \\    /   O peration     | Version:     4.0                                |
|   \\  /    A nd           | Web:         http://www.foam-extend.org         |
|    \\/     M anipulation  | For copyright notice see file Copyright         |
\*---------------------------------------------------------------------------*/
FoamFile
{
    version     2.0;
    format      ascii;
    class       polyBoundaryMesh;
    location    "constant/polyMesh";
    object      boundary;
}
// * * * * * * * * * * * * * * * * * * * * * * * * * * * * * * * * * * * * * //

5
(
    inlet
    {
        type            patch;
        nFaces          120;
        startFace       41040;
    }
    fixedWalls
    {
        type            wall;
        nFaces          330;
        startFace       41160;
    }
    outlet
    {
        type            patch;
        nFaces          30;
        startFace       41490;
    }
    simetry
    {
        type            symmetryPlane;
        nFaces          240;
        startFace       41520;
    }
    frontAndBack
    {
        type            empty;
        nFaces          41400;
        startFace       41760;
    }
)

// ************************************************************************* //
