/*---------------------------------------------------------------------------*\
| =========                 |                                                 |
| \\      /  F ield         | OpenFOAM: The Open Source CFD Toolbox           |
|  \\    /   O peration     | Version:  1.0                                   |
|   \\  /    A nd           | Web:      http://www.openfoam.org               |
|    \\/     M anipulation  |                                                 |
\*---------------------------------------------------------------------------*/

FoamFile
{
    version         2.0;
    format          ascii;

    root            "";
    case            "";
    instance        "";
    local           "";

    class           dictionary;
    object          rheologyProperties;
}

// * * * * * * * * * * * * * * * * * * * * * * * * * * * * * * * * * * * * * //

planeStress     no;

rheology
{
    type            linearElastic;
    rho             rho [1 -3 0 0 0 0 0]  10;
    E               E   [1 -1 -2 0 0 0 0] 1.4e4;
    nu              nu  [0 0 0 0 0 0 0]   0.4;
}

// ************************************************************************* //
