/*--------------------------------*- C++ -*----------------------------------*\
| =========                 |                                                 |
| \\      /  F ield         | OpenFOAM Extend Project: Open Source CFD        |
|  \\    /   O peration     | Version:  1.6-ext                               |
|   \\  /    A nd           | Web:      www.extend-project.de                 |
|    \\/     M anipulation  |                                                 |
\*---------------------------------------------------------------------------*/
FoamFile
{
    version     2.0;
    format      ascii;
    class       dictionary;
    object      fvSolution;
}
// * * * * * * * * * * * * * * * * * * * * * * * * * * * * * * * * * * * * * //

solvers
{
    U               ICCG 1e-06 0.01;
}

stressedFoam
{
    nCorrectors     1;
    U               1e-06;

    componentReference
    (
//         {
//             patch bottomBrickLeft;
//             face  0;
//             direction z;
//             value 0;
//         }

        {
            patch topBrickLeft;
            face  0;
            direction z;
            value 0;
        }
    );
}

// ************************************************************************* //
