/*--------------------------------*- C++ -*----------------------------------*\
| =========                 |                                                 |
| \\      /  F ield         | OpenFOAM Extend Project: Open source CFD        |
|  \\    /   O peration     | Version:  1.6-ext                               |
|   \\  /    A nd           | Web:      www.extend-project.de                 |
|    \\/     M anipulation  |                                                 |
\*---------------------------------------------------------------------------*/
FoamFile
{
    version     2.0;
    format      ascii;
    class       polyBoundaryMesh;
    location    "constant/polyMesh";
    object      boundary;
}
// * * * * * * * * * * * * * * * * * * * * * * * * * * * * * * * * * * * * * //

6
(
    left
    {
        type            symmetryPlane;
        nFaces          120;
        startFace       31720;
    }
    right
    {
        type            patch;
        nFaces          120;
        startFace       31840;
    }
    down
    {
        type            symmetryPlane;
        nFaces          120;
        startFace       31960;
    }
    up
    {
        type            patch;
        nFaces          120;
        startFace       32080;
    }
    hole
    {
        type            patch;
        nFaces          80;
        startFace       32200;
    }
    frontAndBack
    {
        type            empty;
        nFaces          32000;
        startFace       32280;
    }
)

// ************************************************************************* //
