/*--------------------------------*- C++ -*----------------------------------*\
| =========                 |                                                 |
| \\      /  F ield         | OpenFOAM: The Open Source CFD Toolbox           |
|  \\    /   O peration     | Version:  1.3                                   |
|   \\  /    A nd           | Web:      http://www.openfoam.org               |
|    \\/     M anipulation  |                                                 |
\*---------------------------------------------------------------------------*/

// Field Dictionary

FoamFile
{
    version         2.0;
    format          ascii;
    class           volScalarField;
    object          T;
}

// * * * * * * * * * * * * * * * * * * * * * * * * * * * * * * * * * * * * * //


dimensions      [0 0 0 1 0 0 0];


internalField   uniform 100;

boundaryField
{
    top
    {
        type            zeroGradient;
    }

    bottom
    {
        type            zeroGradient;
    }

    leftIn
    {
        type            fixedValue;
        value           uniform 10;
    }

    rightOut
    {
        type            fixedValue;
        value           uniform 0;
    }

    mixpLeftOut
    {
        type            mixingPlane;
    }

    mixpRightIn
    {
        type            mixingPlane;
    }

    frontAndBack
    {
        type            empty;
    }
}


// ************************************************************************* //
