/*--------------------------------*- C++ -*----------------------------------*\
| =========                 |                                                 |
| \\      /  F ield         | foam-extend: Open Source CFD                    |
|  \\    /   O peration     | Version:     3.1                                |
|   \\  /    A nd           | Web:         http://www.extend-project.de       |
|    \\/     M anipulation  |                                                 |
\*---------------------------------------------------------------------------*/
FoamFile
{
    version     2.0;
    format      ascii;
    class       dictionary;
    location    "system";
    object      fvSchemes;
}
// * * * * * * * * * * * * * * * * * * * * * * * * * * * * * * * * * * * * * //

ddtSchemes
{
}

gradSchemes
{
    default none;
    grad(Us) Gauss linear;
    grad((Us&faceAreaNormals)) Gauss linear;
}

divSchemes
{
    default none;
    div(Us) Gauss linear;
}

laplacianSchemes
{
    default             none;
}

interpolationSchemes
{
    default none;
}

snGradSchemes
{
    default none;
}

fluxRequired
{
    p;
}

// ************************************************************************* //
