/*--------------------------------*- C++ -*----------------------------------*\
| =========                 |                                                 |
| \\      /  F ield         | foam-extend: Open Source CFD                    |
|  \\    /   O peration     | Version:     3.1                                |
|   \\  /    A nd           | Web:         http://www.extend-project.de       |
|    \\/     M anipulation  |                                                 |
\*---------------------------------------------------------------------------*/
FoamFile
{
    version     2.0;
    format      ascii;
    class       dictionary;
    object      fvSolution;
}
// * * * * * * * * * * * * * * * * * * * * * * * * * * * * * * * * * * * * * //

solvers
{
    phi PCG
    {
        preconditioner   DIC;
        tolerance        1e-08;
        relTol           0.2;
    };
    rho PBiCG
    {
        preconditioner   DILU;
        tolerance        1e-08;
        relTol           0.2;
    };
}

// ************************************************************************* //
