/*--------------------------------*- C++ -*----------------------------------*\
| =========                 |                                                 |
| \\      /  F ield         | foam-extend: Open Source CFD                    |
|  \\    /   O peration     | Version:     3.1                                |
|   \\  /    A nd           | Web:         http://www.extend-project.de       |
|    \\/     M anipulation  |                                                 |
\*---------------------------------------------------------------------------*/
FoamFile
{
    version     2.0;
    format      ascii;
    class       volScalarField;
    object      T;
}
dimensions      [0 0 0 1 0 0 0];

internalField uniform 100;

boundaryField
{
  inlet
  {
        type            fixedValue;
        value           uniform 500;
  }
  outlet
  {
        type            fixedValue;
        value           uniform 100;
  }
  wallProlongation
  {
    type zeroGradient;
  }
  wallDiffuser
  {
    type zeroGradient;
  }
  statSwirlWallB_C
  {
    type zeroGradient;
  }
  rotSwirlWallA_BB
  {
    type zeroGradient;
  }
  B_UPSTREAM
  {
    type mixingPlane;
  }
  B_DOWNSTREAM
  {
    type mixingPlane;
  }
  sideWallA_BB_cyclic1
  {
    type cyclicGgi;
  }
  sideWallA_BB_cyclic2
  {
    type cyclicGgi;
  }
  defaultFaces
  {
    type empty;
  }
} 	// ************************************************************************* //

