/*---------------------------------------------------------------------------*\
| =========                 |                                                 |
| \\      /  F ield         | OpenFOAM: The Open Source CFD Toolbox           |
|  \\    /   O peration     | Version:  1.4                                   |
|   \\  /    A nd           | Web:      http://www.openfoam.org               |
|    \\/     M anipulation  |                                                 |
\*---------------------------------------------------------------------------*/


FoamFile
{
    version         2.0;
    format          ascii;

    root            "boundaryFoam";
    case            "boundaryWallFunctions";
    instance        "0";
    local           "";

    class           volVectorField;
    object          U;
}

// * * * * * * * * * * * * * * * * * * * * * * * * * * * * * * * * * * * * * //


dimensions      [0 1 -1 0 0 0 0];

internalField   uniform (10 0 0);

boundaryField
{
    lowerWall       
    {
        type            fixedValue;
        value           uniform (0 0 0);
    }

    upperWall       
    {
        type            fixedValue;
        value           uniform (0 0 0);
    }

    defaultFaces    
    {
        type            empty;
    }
}


// ************************************************************************* //
