/*--------------------------------*- C++ -*----------------------------------*\
| =========                 |                                                 |
| \\      /  F ield         | OpenFOAM: The Open Source CFD Toolbox           |
|  \\    /   O peration     | Version:  1.5                                   |
|   \\  /    A nd           | Web:      http://www.OpenFOAM.org               |
|    \\/     M anipulation  |                                                 |
\*---------------------------------------------------------------------------*/
FoamFile
{
    version     2.0;
    format      ascii;
    class       dictionary;
    object      testDict9;
}
// * * * * * * * * * * * * * * * * * * * * * * * * * * * * * * * * * * * * * //
// Sa..Sl; DSa..DSo; Aa..Af; Pa..Pf

ninea   "nineb";
nineb   "ninec";
ninec   "nined";
nined   "ninee";
ninee   "ninef";
ninef   "nineg";
nineg   "nineh";
nineh   "ninei";
ninei   "ninej";
ninej   1.0;
