/*--------------------------------*- C++ -*----------------------------------*\
| =========                 |                                                 |
| \\      /  F ield         | OpenFOAM: The Open Source CFD Toolbox           |
|  \\    /   O peration     | Version:  1.5                                   |
|   \\  /    A nd           | Web:      http://www.OpenFOAM.org               |
|    \\/     M anipulation  |                                                 |
\*---------------------------------------------------------------------------*/
FoamFile
{
    version     2.0;
    format      ascii;
    class       dictionary;
    object      testDict2;
}
// * * * * * * * * * * * * * * * * * * * * * * * * * * * * * * * * * * * * * //
// Sa..Sl; DSa..DSo; Aa..Af; Pa..Pf

twoa    "1";
twob    "1";
twoc    "1";
twod    "1";
twoe    "1";
twof    "1";
twog    "1";
twoh    "1";
twoi    "1";
twoj    "1";
