/*--------------------------------*- C++ -*----------------------------------*\
| =========                 |                                                 |
| \\      /  F ield         | OpenFOAM: The Open Source CFD Toolbox           |
|  \\    /   O peration     | Version:  1.5                                   |
|   \\  /    A nd           | Web:      http://www.OpenFOAM.org               |
|    \\/     M anipulation  |                                                 |
\*---------------------------------------------------------------------------*/
FoamFile
{
    version     2.0;
    format      ascii;
    class       dictionary;
    object      testDict6;
}
// * * * * * * * * * * * * * * * * * * * * * * * * * * * * * * * * * * * * * //
// Sa..Sl; DSa..DSo; Aa..Af; Pa..Pf

sixa   1.0;
sixb   1.0;
sixc   1.0;
sixd   1.0;
sixe   1.0;
sixf   1.0;
sixg   1.0;
sixh   1.0;
sixi   1.0;
sixj   1.0;
