/*--------------------------------*- C++ -*----------------------------------*\
| =========                 |                                                 |
| \\      /  F ield         | OpenFOAM: The Open Source CFD Toolbox           |
|  \\    /   O peration     | Version:  1.5                                   |
|   \\  /    A nd           | Web:      http://www.OpenFOAM.org               |
|    \\/     M anipulation  |                                                 |
\*---------------------------------------------------------------------------*/
FoamFile
{
    version     2.0;
    format      ascii;
    class       dictionary;
    object      testDict8;
}
// * * * * * * * * * * * * * * * * * * * * * * * * * * * * * * * * * * * * * //
// Sa..Sl; DSa..DSo; Aa..Af; Pa..Pf

eighta  eighta [0 0 0 0 0 0 0] 1.0;
eightb  eightb [0 0 0 0 0 0 0] 1.0;
eightc  eightc [0 0 0 0 0 0 0] 1.0;
eightd  eightd [0 0 0 0 0 0 0] 1.0;
eighte  eighte [0 0 0 0 0 0 0] 1.0;
eightf  eightf [0 0 0 0 0 0 0] 1.0;
eightg  eightg [0 0 0 0 0 0 0] 1.0;
eighth  eighth [0 0 0 0 0 0 0] 1.0;
eighti  eighti [0 0 0 0 0 0 0] 1.0;
eightj  eightj [0 0 0 0 0 0 0] 1.0;
