/*--------------------------------*- C++ -*----------------------------------*\
| =========                 |                                                 |
| \\      /  F ield         | OpenFOAM: The Open Source CFD Toolbox           |
|  \\    /   O peration     | Version:  1.5                                   |
|   \\  /    A nd           | Web:      http://www.OpenFOAM.org               |
|    \\/     M anipulation  |                                                 |
\*---------------------------------------------------------------------------*/
FoamFile
{
    version     2.0;
    format      ascii;
    class       dictionary;
    object      testDict3;
}
// * * * * * * * * * * * * * * * * * * * * * * * * * * * * * * * * * * * * * //
// Sa..Sl; DSa..DSo; Aa..Af; Pa..Pf

threea    "1";
threeb    "1";
threec    "1";
threed    "1";
threee    "1";
threef    "1";
threeg    "1";
threeh    "1";
threei    "1";
threej    "1";
nuAdd   [0 2 -1 0 0 0 0] "DStime / 10000";

pdimless    [0 0 0 0 0 0 0] "p";
