/*--------------------------------*- C++ -*----------------------------------*\
| =========                 |                                                 |
| \\      /  F ield         | OpenFOAM: The Open Source CFD Toolbox           |
|  \\    /   O peration     | Version:  dev                                   |
|   \\  /    A nd           | Web:      http://www.OpenFOAM.org               |
|    \\/     M anipulation  |                                                 |
\*---------------------------------------------------------------------------*/
FoamFile
{
    version     2.0;
    format      ascii;
    class       volScalarField;
    object      pd;
}
// * * * * * * * * * * * * * * * * * * * * * * * * * * * * * * * * * * * * * //

dimensions      [1 -1 -2 0 0 0 0];

internalField   uniform 0;

boundaryField
{
    walls        
    {
        type            zeroGradient;
    }

    obstacle       
    {
        type            zeroGradient;
    }

    atmosphere      
    {
        type            totalPressure;
        p0              uniform 0;
        U               U;
        phi             phi;
        rho             none;
        psi             none;
        gamma           1;
        value           uniform 0;
    }
}

// ************************************************************************* //
