/*--------------------------------*- C++ -*----------------------------------*\
| =========                 |                                                 |
| \\      /  F ield         | OpenFOAM Extend Project: Open Source CFD        |
|  \\    /   O peration     | Version:  1.6-ext                               |
|   \\  /    A nd           | Web:      www.extend-project.de                 |
|    \\/     M anipulation  |                                                 |
\*---------------------------------------------------------------------------*/
FoamFile
{
    version     2.0;
    format      ascii;
    class       dictionary;
    object      controlDict;
}
// * * * * * * * * * * * * * * * * * * * * * * * * * * * * * * * * * * * * * //

application     pimpleDyMFoam;

startFrom       startTime;

startTime       0;

stopAt          endTime;

endTime         10;
deltaT          0.001;

writeControl    adjustableRunTime;
writeInterval   0.05;

cycleWrite      0;

writeFormat     ascii;

writeCompression compressed;

timeFormat      general;
writePrecision  10;
timePrecision   10;

runTimeModifiable yes;

adjustTimeStep   on;

maxCo            0.7;

// ************************************************************************* //
