/*---------------------------------------------------------------------------*\
| =========                 |                                                 |
| \\      /  F ield         | OpenFOAM: The Open Source CFD Toolbox           |
|  \\    /   O peration     | Version:  1.0                                   |
|   \\  /    A nd           | Web:      http://www.openfoam.org               |
|    \\/     M anipulation  |                                                 |
\*---------------------------------------------------------------------------*/

FoamFile
{
    version         2.0;
    format          ascii;

    root            "";
    case            "";
    instance        "";
    local           "";

    class           dictionary;
    object          contactProperties;
}

// * * * * * * * * * * * * * * * * * * * * * * * * * * * * * * * * * * * * * //

// Contact relaxation factors
urfTraction            0.2;
urfValue               0.2;
urfFraction            0.2;

contacts
1
(
    c1
    {
        masterPatch    bottomBrickUp;
        slavePatch     topBrickDown;
        frictionCoeff  mu [0 0 0 0 0 0 0] 0.15;
        contactTol     5e-6;
        projectionDir  contactSphere;
        projectionAlgo visible;
    }
);

// ************************************************************************* //
