/*--------------------------------*- C++ -*----------------------------------*\
| =========                 |                                                 |
| \\      /  F ield         | foam-extend: Open Source CFD                    |
|  \\    /   O peration     | Version:     3.2                                |
|   \\  /    A nd           | Web:         http://www.foam-extend.org         |
|    \\/     M anipulation  |                                                 |
\*---------------------------------------------------------------------------*/
FoamFile
{
    version     2.0;
    format      ascii;
    class       dictionary;
    object      cellSetDict;
}
// * * * * * * * * * * * * * * * * * * * * * * * * * * * * * * * * * * * * * //

// Name of set to operate on
name rotor;

// One of clear/new/invert/add/delete|subset/list
action new;

// Actions to apply to cellSet. These are all the topoSetSource's ending
// in ..ToCell (see the meshTools library).

topoSetSources
(
    // Cells in cell zone
    zoneToCell
    {
        name rotor;      // name of cellZone
    }

);

// ************************************************************************* //
