/*--------------------------------*- C++ -*----------------------------------*\
| =========                 |                                                 |
| \\      /  F ield         | foam-extend: Open Source CFD                    |
|  \\    /   O peration     | Version:     3.0                                |
|   \\  /    A nd           | Web:         http://www.extend-project.de       |
|    \\/     M anipulation  |                                                 |
\*---------------------------------------------------------------------------*/
FoamFile
{
    version     2.0;
    format      ascii;
    class       dictionary;
    object      rheologyProperties;
}
// * * * * * * * * * * * * * * * * * * * * * * * * * * * * * * * * * * * * * //

planeStress no;

rheology
{
  type            linearElastic;
  rho             rho [1 -3 0 0 0 0 0] 7800;
  E               E [1 -1 -2 0 0 0 0] 200e+09;
  nu              nu [0 0 0 0 0 0 0] 0.3;
}

// ************************************************************************* //
