// -*- C++ -*-
// File generated by PyFoam - sorry for the ugliness

FoamFile
{
 version 2.0;
 format ascii;
 root "/home/page/OpenFOAM/bk3421-1.3/run/calculs/simpleFoam/MFR";
 case "secteur360";
 instance ""      0 "" ;
 local "";
 class volScalarField;
 object alpha;
}

dimensions [ 0 0 0 0 0 0 0 ];

internalField uniform 1;

boundaryField
{

  downstreamMixingPlanePatch
  {
    type mixingPlane;
  }
  upstreamMixingPlanePatch
  {
    type mixingPlane;
  }

  upstreamPerio1
  {
    type cyclicGgi;
  }
  upstreamPerio2
  {
    type cyclicGgi;
  }

  downstreamPerio1
  {
    type cyclicGgi;
  }
  downstreamPerio2
  {
    type cyclicGgi;
  }

  downstreamWall
  {
    type symmetryPlane;
  }
  upstreamWall
  {
    type symmetryPlane;
  }

  inflow
  {
    type zeroGradient;
  }
  outflow
  {
    type zeroGradient;
  }
}

