// -*- C++ -*-
// File generated by PyFoam - sorry for the ugliness

FoamFile
{
 version 2.0;
 format ascii;
 root ".";
 case "dom3_sFoam";
 instance "0";
 local "";
 class volScalarField;
 object k;
}

dimensions [ 0 2 -2 0 0 0 0 ];

internalField uniform 0.1;

boundaryField
{
  downstreamPerio1
  {
    type cyclicGgi;
  }
  downstreamPerio2
  {
    type cyclicGgi;
  }

  upstreamPerio1
  {
    type cyclicGgi;
  }
  upstreamPerio2
  {
    type cyclicGgi;
  }
  downstreamWall
  {
    type symmetryPlane;
  }
  upstreamWall
  {
      type symmetryPlane;
  }

  downstreamMixingPlanePatch
  {
    type mixingPlane;
  }
  upstreamMixingPlanePatch
  {
    type mixingPlane;
  }

  inflow
  {
    type profile1DfixedValue;
    fileName "absolu_cr.csv";
    fileFormat "turboCSV";
    interpolateCoord "Z";
    fieldName "K";
  }
  outflow
  {
    type zeroGradient;
  }

} 	// ************************************************************************* //

