// -*- C++ -*-
// File generated by PyFoam - sorry for the ugliness

FoamFile
{
 version 2.0;
 format ascii;
 root "/home/math/OpenFOAM/test_MATH/test_GGI/simpleFoam_MFR_stitch/MFR/360deg_1on1";
 case "dom1_dom2_GGI";
 instance "0";
 local "";
 class surfaceScalarField;
 object phi;
}

dimensions [ 0 3 -1 0 0 0 0 ];

internalField uniform 0;

boundaryField
{
  downstreamMixingPlanePatch
  {
    type mixingPlane;
  }
  upstreamMixingPlanePatch
  {
    type mixingPlane;
  }

  downstreamWall
  {
    type symmetryPlane;
  }
  upstreamWall
  {
    type symmetryPlane;
  }

  upstreamPerio1
  {
    type cyclicGgi;
  }
  upstreamPerio2
  {
    type cyclicGgi;
  }

  downstreamPerio1
  {
    type cyclicGgi;
  }
  downstreamPerio2
  {
    type cyclicGgi;
  }

  inflow
  {
    type fixedValue;
    value uniform 0;
  }
  outflow
  {
    type fixedValue;
    value uniform 0;
  }
} 	// ************************************************************************* //

