// -*- C++ -*-
// File generated by PyFoam - sorry for the ugliness

FoamFile
{
 version 2.0;
 format ascii;
 root "";
 case "dom1_dom2_GGI";
 instance "0";
 local "";
 class volVectorField;
 object U;
}

dimensions [ 0 1 -1 0 0 0 0 ];

internalField uniform (0 0 0);

boundaryField
{
  upstreamMixingPlanePatch
  {
    type mixingPlane;
  }
  downstreamMixingPlanePatch
  {
    type mixingPlane;
  }

  upstreamPerio1
  {
    type cyclicGgi;
  }
  upstreamPerio2
  {
    type cyclicGgi;
  }

  downstreamPerio1
  {
    type cyclicGgi;
  }
  downstreamPerio2
  {
    type cyclicGgi;
  }

  downstreamWall
  {
    type symmetryPlane;
  }
  upstreamWall
  {
    type symmetryPlane;
  }

  inflow
  {
    type profile1DfixedValue;
    fileName "absolu_cr.csv";
    fileFormat "turboCSV";
    interpolateCoord "Z";
    fieldName "Velocity";
  }

  outflow
  {
    type inletOutlet;
    inletValue      uniform (0 0 0);
    value           uniform (0 0 0);
  }
} 	// ************************************************************************* //

