/*--------------------------------*- C++ -*----------------------------------*\
| =========                 |                                                 |
| \\      /  F ield         | foam-extend: Open Source CFD                    |
|  \\    /   O peration     | Version:     4.1                                |
|   \\  /    A nd           | Web:         http://www.foam-extend.org         |
|    \\/     M anipulation  |                                                 |
\*---------------------------------------------------------------------------*/
FoamFile
{
    version     2.0;
    format      ascii;
    class       dictionary;
    object      fvSolution;
}
// * * * * * * * * * * * * * * * * * * * * * * * * * * * * * * * * * * * * * //

solvers
{
    p
    {
        solver           PCG;
        preconditioner   DIC;
        tolerance        1e-06;
        relTol           0.0;
    }
    Urel
    {
        solver           BiCGStab;
        preconditioner   DILU;
        tolerance        1e-05;
        relTol           0.1;
    }
    k
    {
        solver           BiCGStab;
        preconditioner   DILU;
        tolerance        1e-05;
        relTol           0.1;
    }
    epsilon
    {
        solver           BiCGStab;
        preconditioner   DILU;
        tolerance        1e-05;
        relTol           0.1;
    }
    omega
    {
        solver           BiCGStab;
        preconditioner   DILU;
        tolerance        1e-05;
        relTol           0.1;
    }
}

SIMPLE
{
    nNonOrthogonalCorrectors 0;
}

relaxationFactors
{
    p               0.3;
    Urel            0.7;
    k               0.7;
    epsilon         0.7;
    omega           0.7;
}


// ************************************************************************* //
