/*---------------------------------------------------------------------------*\
| =========                 |                                                 |
| \\      /  F ield         | OpenFOAM: The Open Source CFD Toolbox           |
|  \\    /   O peration     | Version:  1.0                                   |
|   \\  /    A nd           | Web:      http://www.openfoam.org               |
|    \\/     M anipulation  |                                                 |
\*---------------------------------------------------------------------------*/

FoamFile
{
    version         2.0;
    format          ascii;

    root            "";
    case            "";
    instance        "";
    local           "";

    class           dictionary;
    object          fvSolution;
}

// * * * * * * * * * * * * * * * * * * * * * * * * * * * * * * * * * * * * * //

solvers
{
    U               ICCG 1e-06 0.01;
}

stressedFoam
{
    nCorrectors     1;
    U               1e-06;

    componentReference
    (
//         {
//             patch bottomBrickLeft;
//             face  0;
//             direction z;
//             value 0;
//         }

        {
            patch topBrickLeft;
            face  0;
            direction z;
            value 0;
        }
    );
}


// ************************************************************************* //
