/*--------------------------------*- C++ -*----------------------------------*\
| =========                 |                                                 |
| \\      /  F ield         | foam-extend: Open Source CFD                    |
|  \\    /   O peration     | Version:     3.2                                |
|   \\  /    A nd           | Web:         http://www.foam-extend.org         |
|    \\/     M anipulation  |                                                 |
\*---------------------------------------------------------------------------*/
FoamFile
{
    version     2.0;
    format      ascii;
    class       dictionary;
    object      thermalProperties;
}
// * * * * * * * * * * * * * * * * * * * * * * * * * * * * * * * * * * * * * //

thermal
{
    type     constant;
    C        C [0 2 -2 -1 0 0 0] 434;
    k        k [1 1 -3 -1 0 0 0] 250;
    alpha    alpha [0 0 0 -1 0 0 0] 2.3e-05;
    T0       T0 [0 0 0 1 0 0 0] 0;
}

// ************************************************************************* //
