/*--------------------------------*- C++ -*----------------------------------*\
| =========                 |                                                 |
| \\      /  F ield         | OpenFOAM: The Open Source CFD Toolbox           |
|  \\    /   O peration     | Version:  1.5-dev                               |
|   \\  /    A nd           | Revision: 1326                                  |
|    \\/     M anipulation  | Web:      http://www.OpenFOAM.org               |
\*---------------------------------------------------------------------------*/
FoamFile
{
    version     2.0;
    format      ascii;
    class       volScalarField;
    location    "0";
    object      p;
}
// * * * * * * * * * * * * * * * * * * * * * * * * * * * * * * * * * * * * * //

dimensions [ 0 2 -2 0 0 0 0 ];

internalField uniform 0;

boundaryField
{
    downstreamMixingPlanePatch
    {
        type mixingPlane;
    }
    upstreamMixingPlanePatch
    {
        type mixingPlane;
    }
    downstreamWall
    {
        type symmetryPlane;
    }
    upstreamWall
    {
        type symmetryPlane;
    }
    upstreamPerio1
    {
        type cyclicGgi;
    }
    upstreamPerio2
    {
        type cyclicGgi;
    }
    downstreamPerio1
    {
        type cyclicGgi;
    }
    downstreamPerio2
    {
        type cyclicGgi;
    }
    inflow
    {
        type zeroGradient;
    }
    outflow
    {
        type fixedValue;
        value uniform 0;
    }
}


// ************************************************************************* //

