/*--------------------------------*- C++ -*----------------------------------*\
| =========                 |                                                 |
| \\      /  F ield         | foam-extend: Open Source CFD                    |
|  \\    /   O peration     | Version:     4.0                                |
|   \\  /    A nd           | Web:         http://www.foam-extend.org         |
|    \\/     M anipulation  |                                                 |
\*---------------------------------------------------------------------------*/
FoamFile
{
    version     2.0;
    format      ascii;
    class       dictionary;
    object      dynamicMeshDict;
}
// * * * * * * * * * * * * * * * * * * * * * * * * * * * * * * * * * * * * * //

// dynamicFvMesh   staticFvMesh;
// dynamicFvMesh   immersedBoundarySolidBodyMotionFvMesh;
dynamicFvMesh      immersedBoundaryDynamicRefineSolidBodyMotionFvMesh;

immersedBoundaryDynamicRefineSolidBodyMotionFvMeshCoeffs
{}

dynamicPolyRefinementFvMeshCoeffs
{
    motionFunctions
    (
        ibCylinder
        {
            solidBodyMotionFunction     linearOscillation;
            linearOscillationCoeffs
            {
                amplitude    (0.5 0 0);
                period       2.5;
            }
        }
    );

    refinementSelection
    {
        type immersedBoundaryRefinement;

        coarseningDistance 0.15;
        refinementDistance 0.1;
    }

    active                     yes;
    refineInterval             2;
    unrefineInterval           2;

    maxRefinementLevel         3;
    nRefinementBufferLayers    1;
    nUnrefinementBufferLayers  5;
    maxCells                   20000;
}


// ************************************************************************* //
