/*--------------------------------*- C++ -*----------------------------------*\
| =========                 |                                                 |
| \\      /  F ield         | OpenFOAM: The Open Source CFD Toolbox           |
|  \\    /   O peration     | Version:  1.5                                   |
|   \\  /    A nd           | Web:      http://www.OpenFOAM.org               |
|    \\/     M anipulation  |                                                 |
\*---------------------------------------------------------------------------*/
FoamFile
{
    version     2.0;
    format      ascii;
    class       dictionary;
    object      blockMeshDict;
}
// * * * * * * * * * * * * * * * * * * * * * * * * * * * * * * * * * * * * * //

convertToMeters 0.1;

vertices
(
    (0 0 0)
    (3 0 0)
    (3 1 0)
    (0 1 0)
    (0 0 0.1)
    (3 0 0.1)
    (3 1 0.1)
    (0 1 0.1)
);

blocks
(
    hex (0 1 2 3 4 5 6 7) (60 20 1) simpleGrading (1 1 1)
);

edges
(
);

patches
(
    patch inlet
    (
        (0 4 7 3)
    )
    wall bound
    (
        (3 7 6 2)
        (1 5 4 0)
    )
    patch outlet
    (
        (2 6 5 1)
    )
    patch bottom
    (
        (0 3 2 1)
    )
    patch top
    (
        (4 5 6 7)
    )
);

mergePatchPairs
(
);

// ************************************************************************* //
