/*--------------------------------*- C++ -*----------------------------------*\
| =========                 |                                                 |
| \\      /  F ield         | foam-extend: Open Source CFD                    |
|  \\    /   O peration     | Version:     3.2                                |
|   \\  /    A nd           | Web:         http://www.foam-extend.org         |
|    \\/     M anipulation  |                                                 |
\*---------------------------------------------------------------------------*/
FoamFile
{
    version     2.0;
    format      ascii;
    class       volVectorField;
    location    "0";
    object      DU;
}
// * * * * * * * * * * * * * * * * * * * * * * * * * * * * * * * * * * * * * //

dimensions      [0 1 0 0 0 0 0];

internalField   uniform (0 0 0);

boundaryField
{
  surface
    {
      type            timeVaryingFixedRotation;
      rotationAxis    ( 0 0 1 );
      rotationOrigin  ( 0 0 0 );
      fileName        "$FOAM_CASE/constant/timeVsAngle";
      outOfBounds     clamp;
      value           uniform   ( 0 0 0 );
    }
}

// ************************************************************************* //
